  Page 1                                    Mon May 15 16:54:24 2023

  ******************************************************************
  *                           E P A N E T                          *
  *                   Hydraulic and Water Quality                  *
  *                   Analysis for Pipe Networks                   *
  *                         Version 2.00.12                        *
  ******************************************************************
  
  Analysis begun Mon May 15 16:54:24 2023

  WARNING: Pump P1 closed because cannot deliver head at 1:00:00 hrs.
  
  WARNING: Pump K1 closed because cannot deliver head at 2:00:00 hrs.
  
  WARNING: Pump P1 closed because cannot deliver head at 3:00:00 hrs.
  
  WARNING: Pump P1 closed because cannot deliver head at 4:00:00 hrs.
  
  WARNING: Pump K1 closed because cannot deliver head at 6:00:00 hrs.
  
  WARNING: Pump F1 closed because cannot deliver head at 7:00:00 hrs.
  WARNING: Pump P1 closed because cannot deliver head at 7:00:00 hrs.
  
  WARNING: Pump P1 closed because cannot deliver head at 8:00:00 hrs.
  
  WARNING: Pump F1 closed because cannot deliver head at 11:00:00 hrs.
  
  WARNING: Pump F1 closed because cannot deliver head at 13:00:00 hrs.
  
  WARNING: Pump K1 closed because cannot deliver head at 15:00:00 hrs.
  
  WARNING: Pump F1 closed because cannot deliver head at 16:16:00 hrs.
  
  WARNING: Pump F1 closed because cannot deliver head at 17:00:00 hrs.
  WARNING: Pump P1 closed because cannot deliver head at 17:00:00 hrs.
  
  WARNING: Pump P1 closed because cannot deliver head at 18:00:00 hrs.
  
  WARNING: Pump P1 closed because cannot deliver head at 18:39:59 hrs.
  
  WARNING: Pump F1 closed because cannot deliver head at 19:00:00 hrs.
  WARNING: Pump P1 closed because cannot deliver head at 19:00:00 hrs.
  
  WARNING: Pump F1 closed because cannot deliver head at 21:00:00 hrs.
  
  WARNING: Pump F1 closed because cannot deliver head at 23:00:00 hrs.
  
  WARNING: Pump F1 closed because cannot deliver head at 24:00:00 hrs.
  
  WARNING: Pump P1 closed because cannot deliver head at 0:00:00 hrs.
  
  WARNING: Pump F1 closed because cannot deliver head at 2:00:00 hrs.
  WARNING: Pump K1 closed because cannot deliver head at 2:00:00 hrs.
  
  WARNING: Pump K1 closed because cannot deliver head at 3:00:00 hrs.
  
  WARNING: Pump K1 closed because cannot deliver head at 4:00:00 hrs.
  
  WARNING: Pump P1 closed because cannot deliver head at 5:00:00 hrs.
  
  WARNING: Pump F1 closed because cannot deliver head at 6:00:00 hrs.
  WARNING: Pump P1 closed because cannot deliver head at 6:00:00 hrs.
  
  WARNING: Pump P1 closed because cannot deliver head at 7:00:00 hrs.
  
  WARNING: Pump P1 closed because cannot deliver head at 8:00:00 hrs.
  
  WARNING: Pump F1 closed because cannot deliver head at 11:00:00 hrs.
  WARNING: Pump P1 closed because cannot deliver head at 11:00:00 hrs.
  
  WARNING: Pump P1 closed because cannot deliver head at 12:00:00 hrs.
  
  WARNING: Pump F1 closed because cannot deliver head at 13:00:00 hrs.
  WARNING: Pump K1 closed because cannot deliver head at 13:00:00 hrs.
  
  WARNING: Pump F1 closed because cannot deliver head at 15:00:00 hrs.
  WARNING: Pump P1 closed because cannot deliver head at 15:00:00 hrs.
  
  WARNING: Pump K1 closed because cannot deliver head at 16:00:00 hrs.
  
  WARNING: Pump P1 closed because cannot deliver head at 17:00:00 hrs.
  
  WARNING: Pump P1 closed because cannot deliver head at 19:00:00 hrs.
  
  WARNING: Pump P1 closed because cannot deliver head at 19:38:55 hrs.
  
  WARNING: Pump F1 closed because cannot deliver head at 20:00:00 hrs.
  WARNING: Pump P1 closed because cannot deliver head at 20:00:00 hrs.
  
  WARNING: Pump P1 closed because cannot deliver head at 23:00:00 hrs.
  
  WARNING: Pump F1 closed because cannot deliver head at 23:11:31 hrs.
  WARNING: Pump P1 closed because cannot deliver head at 23:11:31 hrs.
  
  WARNING: Pump F1 closed because cannot deliver head at 24:00:00 hrs.
  
  WARNING: Pump K1 closed because cannot deliver head at 0:00:00 hrs.
  
  WARNING: Pump F1 closed because cannot deliver head at 1:00:00 hrs.
  
  WARNING: Pump P1 closed because cannot deliver head at 3:00:00 hrs.
  
  WARNING: Pump F1 closed because cannot deliver head at 4:00:00 hrs.
  WARNING: Pump K1 closed because cannot deliver head at 4:00:00 hrs.
  
  WARNING: Pump P1 closed because cannot deliver head at 5:00:00 hrs.
  
  WARNING: Pump F1 closed because cannot deliver head at 6:00:00 hrs.
  
  WARNING: Pump P1 closed because cannot deliver head at 7:00:00 hrs.
  
  WARNING: Pump F1 closed because cannot deliver head at 8:00:00 hrs.
  
  WARNING: Pump F1 closed because cannot deliver head at 10:00:00 hrs.
  
  WARNING: Pump F1 closed because cannot deliver head at 11:00:00 hrs.
  
  WARNING: Pump F1 closed because cannot deliver head at 12:00:00 hrs.
  WARNING: Pump P1 closed because cannot deliver head at 12:00:00 hrs.
  
  WARNING: Pump P1 closed because cannot deliver head at 13:00:00 hrs.
  
  WARNING: Pump P1 closed because cannot deliver head at 16:00:00 hrs.
  
  WARNING: Pump P1 closed because cannot deliver head at 17:00:00 hrs.
  
  WARNING: Pump F1 closed because cannot deliver head at 17:36:58 hrs.
  WARNING: Pump P1 closed because cannot deliver head at 17:36:58 hrs.
  
  WARNING: Pump F1 closed because cannot deliver head at 19:09:57 hrs.
  
  WARNING: Pump P1 closed because cannot deliver head at 20:00:00 hrs.
  
  WARNING: Pump F1 closed because cannot deliver head at 22:36:13 hrs.
  
  WARNING: Pump P1 closed because cannot deliver head at 23:00:00 hrs.
  
  WARNING: Pump P1 closed because cannot deliver head at 23:04:19 hrs.
  
  WARNING: Pump F1 closed because cannot deliver head at 24:00:00 hrs.
  
  WARNING: Pump K1 closed because cannot deliver head at 0:00:00 hrs.
  
  WARNING: Pump F1 closed because cannot deliver head at 2:00:00 hrs.
  WARNING: Pump P1 closed because cannot deliver head at 2:00:00 hrs.
  
  WARNING: Pump F1 closed because cannot deliver head at 3:00:00 hrs.
  WARNING: Pump P1 closed because cannot deliver head at 3:00:00 hrs.
  
  WARNING: Pump F1 closed because cannot deliver head at 4:00:00 hrs.
  WARNING: Pump K1 closed because cannot deliver head at 4:00:00 hrs.
  
  WARNING: Pump F1 closed because cannot deliver head at 5:00:00 hrs.
  
  WARNING: Pump P1 closed because cannot deliver head at 6:00:00 hrs.
  
  WARNING: Pump F1 closed because cannot deliver head at 8:00:00 hrs.
  
  WARNING: Pump K1 closed because cannot deliver head at 9:00:00 hrs.
  
  WARNING: Pump P1 closed because cannot deliver head at 10:00:00 hrs.
  
  WARNING: Pump F1 closed because cannot deliver head at 11:00:00 hrs.
  WARNING: Pump P1 closed because cannot deliver head at 11:00:00 hrs.
  
  WARNING: Pump F1 closed because cannot deliver head at 13:00:00 hrs.
  WARNING: Pump P1 closed because cannot deliver head at 13:00:00 hrs.
  
  WARNING: Pump F1 closed because cannot deliver head at 14:00:00 hrs.
  WARNING: Pump K1 closed because cannot deliver head at 14:00:00 hrs.
  
  WARNING: Pump F1 closed because cannot deliver head at 16:00:00 hrs.
  
  WARNING: Pump F1 closed because cannot deliver head at 17:00:00 hrs.
  
  WARNING: Pump F1 closed because cannot deliver head at 18:00:00 hrs.
  
  WARNING: Pump K1 closed because cannot deliver head at 19:00:00 hrs.
  
  WARNING: Pump F1 closed because cannot deliver head at 20:00:00 hrs.
  WARNING: Pump K1 closed because cannot deliver head at 20:00:00 hrs.
  
  WARNING: Pump K1 closed because cannot deliver head at 22:00:00 hrs.
  
  WARNING: Pump F1 closed because cannot deliver head at 0:00:00 hrs.
  WARNING: Pump P1 closed because cannot deliver head at 0:00:00 hrs.
  
  WARNING: Negative pressures at 0:55:57 hrs.
  WARNING: Pump F1 closed because cannot deliver head at 0:55:57 hrs.
  WARNING: Pump P1 open but exceeds maximum flow at 0:55:57 hrs.
  
  WARNING: Pump P1 closed because cannot deliver head at 2:00:00 hrs.
  
  WARNING: Pump F1 closed because cannot deliver head at 3:00:00 hrs.
  
  WARNING: Pump K1 closed because cannot deliver head at 4:00:00 hrs.
  
  WARNING: Pump K1 closed because cannot deliver head at 5:00:00 hrs.
  
  WARNING: Pump P1 closed because cannot deliver head at 6:00:00 hrs.
  
  WARNING: Pump P1 closed because cannot deliver head at 7:00:00 hrs.
  
  WARNING: Pump F1 closed because cannot deliver head at 8:00:00 hrs.
  WARNING: Pump P1 closed because cannot deliver head at 8:00:00 hrs.
  
  WARNING: Pump F1 closed because cannot deliver head at 9:00:00 hrs.
  WARNING: Pump P1 closed because cannot deliver head at 9:00:00 hrs.
  
  WARNING: Pump F1 closed because cannot deliver head at 10:00:00 hrs.
  WARNING: Pump P1 closed because cannot deliver head at 10:00:00 hrs.
  
  WARNING: Pump F1 closed because cannot deliver head at 11:00:00 hrs.
  WARNING: Pump P1 closed because cannot deliver head at 11:00:00 hrs.
  
  WARNING: Pump P1 closed because cannot deliver head at 12:00:00 hrs.
  
  WARNING: Pump P1 closed because cannot deliver head at 13:00:00 hrs.
  
  WARNING: Pump F1 closed because cannot deliver head at 15:00:00 hrs.
  
  WARNING: Pump P1 closed because cannot deliver head at 16:00:00 hrs.
  
  WARNING: Pump F1 closed because cannot deliver head at 17:00:00 hrs.
  WARNING: Pump K1 closed because cannot deliver head at 17:00:00 hrs.
  
  WARNING: Pump K1 closed because cannot deliver head at 19:00:00 hrs.
  
  WARNING: Pump P1 closed because cannot deliver head at 20:00:00 hrs.
  
  WARNING: Pump F1 closed because cannot deliver head at 21:00:00 hrs.
  WARNING: Pump P1 closed because cannot deliver head at 21:00:00 hrs.
  
  WARNING: Pump P1 closed because cannot deliver head at 0:00:00 hrs.
  
  WARNING: Pump K1 closed because cannot deliver head at 2:00:00 hrs.
  
  WARNING: Pump P1 closed because cannot deliver head at 3:00:00 hrs.
  
  WARNING: Pump P1 closed because cannot deliver head at 4:00:00 hrs.
  
  WARNING: Pump F1 closed because cannot deliver head at 5:00:00 hrs.
  WARNING: Pump P1 closed because cannot deliver head at 5:00:00 hrs.
  
  WARNING: Pump P1 closed because cannot deliver head at 6:00:00 hrs.
  
  WARNING: Pump P1 closed because cannot deliver head at 9:00:00 hrs.
  
  WARNING: Pump F1 closed because cannot deliver head at 10:00:00 hrs.
  WARNING: Pump K1 closed because cannot deliver head at 10:00:00 hrs.
  
  WARNING: Pump F1 closed because cannot deliver head at 11:00:00 hrs.
  
  WARNING: Pump F1 closed because cannot deliver head at 13:00:00 hrs.
  
  WARNING: Pump F1 closed because cannot deliver head at 14:00:00 hrs.
  
  WARNING: Pump F1 closed because cannot deliver head at 16:00:00 hrs.
  WARNING: Pump P1 closed because cannot deliver head at 16:00:00 hrs.
  
  WARNING: Pump F1 closed because cannot deliver head at 17:00:00 hrs.
  
  WARNING: Pump F1 closed because cannot deliver head at 20:00:00 hrs.
  
  WARNING: Pump P1 closed because cannot deliver head at 21:00:00 hrs.
  
  WARNING: Pump K1 closed because cannot deliver head at 22:00:00 hrs.
  
  WARNING: Pump K1 closed because cannot deliver head at 22:28:17 hrs.
  
  WARNING: Pump F1 closed because cannot deliver head at 23:00:00 hrs.
  WARNING: Pump P1 closed because cannot deliver head at 23:00:00 hrs.
  
  WARNING: Pump F1 closed because cannot deliver head at 24:00:00 hrs.
  
  WARNING: Pump F1 closed because cannot deliver head at 0:00:00 hrs.
  
  WARNING: Pump K1 closed because cannot deliver head at 2:00:00 hrs.
  
  WARNING: Pump F1 closed because cannot deliver head at 3:00:00 hrs.
  
  WARNING: Pump F1 closed because cannot deliver head at 4:00:00 hrs.
  
  WARNING: Pump F1 closed because cannot deliver head at 6:00:00 hrs.
  WARNING: Pump K1 closed because cannot deliver head at 6:00:00 hrs.
  
  WARNING: Pump P1 closed because cannot deliver head at 7:00:00 hrs.
  
  WARNING: Pump F1 closed because cannot deliver head at 8:00:00 hrs.
  WARNING: Pump P1 closed because cannot deliver head at 8:00:00 hrs.
  
  WARNING: Pump F1 closed because cannot deliver head at 9:00:00 hrs.
  WARNING: Pump P1 closed because cannot deliver head at 9:00:00 hrs.
  
  WARNING: Pump P1 closed because cannot deliver head at 11:00:00 hrs.
  
  WARNING: Pump P1 closed because cannot deliver head at 12:00:00 hrs.
  
  WARNING: Pump P1 closed because cannot deliver head at 13:00:00 hrs.
  
  WARNING: Pump F1 closed because cannot deliver head at 14:00:00 hrs.
  
  WARNING: Pump F1 closed because cannot deliver head at 15:00:00 hrs.
  WARNING: Pump K1 closed because cannot deliver head at 15:00:00 hrs.
  
  WARNING: Pump F1 closed because cannot deliver head at 16:00:00 hrs.
  WARNING: Pump P1 closed because cannot deliver head at 16:00:00 hrs.
  
  WARNING: Pump F1 closed because cannot deliver head at 17:00:00 hrs.
  WARNING: Pump K1 closed because cannot deliver head at 17:00:00 hrs.
  
  WARNING: Pump F1 closed because cannot deliver head at 18:00:00 hrs.
  WARNING: Pump P1 closed because cannot deliver head at 18:00:00 hrs.
  
  WARNING: Pump P1 closed because cannot deliver head at 20:00:00 hrs.
  
  WARNING: Pump F1 closed because cannot deliver head at 22:00:00 hrs.
  
  WARNING: Pump P1 closed because cannot deliver head at 23:00:00 hrs.
  
  WARNING: Pump F1 closed because cannot deliver head at 0:00:00 hrs.
  WARNING: Pump K1 closed because cannot deliver head at 0:00:00 hrs.
  
  WARNING: Pump K1 closed because cannot deliver head at 1:00:00 hrs.
  
  WARNING: Pump F1 closed because cannot deliver head at 2:00:00 hrs.
  WARNING: Pump P1 closed because cannot deliver head at 2:00:00 hrs.
  
  WARNING: Pump F1 closed because cannot deliver head at 4:00:00 hrs.
  
  WARNING: Pump F1 closed because cannot deliver head at 5:00:00 hrs.
  WARNING: Pump P1 closed because cannot deliver head at 5:00:00 hrs.
  
  WARNING: Pump F1 closed because cannot deliver head at 7:00:00 hrs.
  WARNING: Pump P1 closed because cannot deliver head at 7:00:00 hrs.
  
  WARNING: Pump P1 closed because cannot deliver head at 8:00:00 hrs.
  
  WARNING: Pump F1 closed because cannot deliver head at 12:00:00 hrs.
  
  WARNING: Pump P1 closed because cannot deliver head at 14:00:00 hrs.
  
  WARNING: Pump F1 closed because cannot deliver head at 15:00:00 hrs.
  
  WARNING: Pump F1 closed because cannot deliver head at 16:00:00 hrs.
  
  WARNING: Pump F1 closed because cannot deliver head at 17:00:00 hrs.
  
  WARNING: Pump F1 closed because cannot deliver head at 18:00:00 hrs.
  WARNING: Pump P1 closed because cannot deliver head at 18:00:00 hrs.
  
  WARNING: Pump F1 closed because cannot deliver head at 19:00:00 hrs.
  
  WARNING: Pump F1 closed because cannot deliver head at 20:00:00 hrs.
  
  WARNING: Pump P1 closed because cannot deliver head at 21:00:00 hrs.
  
  WARNING: Pump F1 closed because cannot deliver head at 22:00:00 hrs.
  WARNING: Pump P1 closed because cannot deliver head at 22:00:00 hrs.
  
  WARNING: Pump P1 closed because cannot deliver head at 23:00:00 hrs.
  
  WARNING: Pump F1 closed because cannot deliver head at 0:00:00 hrs.
  
  WARNING: Negative pressures at 1:00:00 hrs.
  WARNING: Pump P1 open but exceeds maximum flow at 1:00:00 hrs.
  
  WARNING: Pump K1 closed because cannot deliver head at 2:00:00 hrs.
  
  WARNING: Pump F1 closed because cannot deliver head at 4:00:00 hrs.
  
  WARNING: Pump F1 closed because cannot deliver head at 5:00:00 hrs.
  WARNING: Pump K1 closed because cannot deliver head at 5:00:00 hrs.
  
  WARNING: Pump P1 closed because cannot deliver head at 7:00:00 hrs.
  
  WARNING: Pump P1 closed because cannot deliver head at 9:00:00 hrs.
  
  WARNING: Pump F1 closed because cannot deliver head at 10:00:00 hrs.
  
  WARNING: Pump F1 closed because cannot deliver head at 11:00:00 hrs.
  
  WARNING: Pump P1 closed because cannot deliver head at 12:00:00 hrs.
  
  WARNING: Pump K1 closed because cannot deliver head at 15:00:00 hrs.
  
  WARNING: Pump F1 closed because cannot deliver head at 16:00:00 hrs.
  
  WARNING: Pump F1 closed because cannot deliver head at 19:00:00 hrs.
  WARNING: Pump P1 closed because cannot deliver head at 19:00:00 hrs.
  
  WARNING: Pump F1 closed because cannot deliver head at 21:00:00 hrs.
  
  WARNING: Pump F1 closed because cannot deliver head at 22:00:00 hrs.
  
  WARNING: Negative pressures at 0:00:00 hrs.
  WARNING: Pump P1 open but exceeds maximum flow at 0:00:00 hrs.
  
  WARNING: Pump F1 closed because cannot deliver head at 1:00:00 hrs.
  WARNING: Pump P1 closed because cannot deliver head at 1:00:00 hrs.
  
  WARNING: Pump P1 closed because cannot deliver head at 3:00:00 hrs.
  
  WARNING: Pump K1 closed because cannot deliver head at 4:00:00 hrs.
  
  WARNING: Pump F1 closed because cannot deliver head at 5:00:00 hrs.
  WARNING: Pump P1 closed because cannot deliver head at 5:00:00 hrs.
  
  WARNING: Pump F1 closed because cannot deliver head at 11:00:00 hrs.
  
  WARNING: Pump P1 closed because cannot deliver head at 14:00:00 hrs.
  
  WARNING: Pump F1 closed because cannot deliver head at 15:00:00 hrs.
  
  WARNING: Pump P1 closed because cannot deliver head at 18:00:00 hrs.
  
  WARNING: Pump F1 closed because cannot deliver head at 19:00:00 hrs.
  
  WARNING: Pump P1 closed because cannot deliver head at 20:00:00 hrs.
  
  WARNING: Pump F1 closed because cannot deliver head at 22:00:00 hrs.
  
  WARNING: Pump P1 closed because cannot deliver head at 23:00:00 hrs.
  
  WARNING: Pump F1 closed because cannot deliver head at 24:00:00 hrs.
  
  Analysis ended Mon May 15 16:54:24 2023
