  Page 1                                    Tue May 16 08:12:55 2023

  ******************************************************************
  *                           E P A N E T                          *
  *                   Hydraulic and Water Quality                  *
  *                   Analysis for Pipe Networks                   *
  *                         Version 2.00.12                        *
  ******************************************************************
  
  Analysis begun Tue May 16 08:12:55 2023

  WARNING: Pump P1 closed because cannot deliver head at 0:00:00 hrs.
  
  WARNING: Pump K1 closed because cannot deliver head at 1:00:00 hrs.
  
  WARNING: Pump K1 closed because cannot deliver head at 1:53:05 hrs.
  
  WARNING: Pump F1 closed because cannot deliver head at 2:00:00 hrs.
  WARNING: Pump P1 closed because cannot deliver head at 2:00:00 hrs.
  
  WARNING: Pump K1 closed because cannot deliver head at 3:00:00 hrs.
  
  WARNING: Pump F1 closed because cannot deliver head at 3:15:32 hrs.
  WARNING: Pump K1 closed because cannot deliver head at 3:15:32 hrs.
  
  WARNING: Pump F1 closed because cannot deliver head at 4:00:00 hrs.
  WARNING: Pump P1 closed because cannot deliver head at 4:00:00 hrs.
  
  WARNING: Pump F1 closed because cannot deliver head at 5:00:00 hrs.
  WARNING: Pump P1 closed because cannot deliver head at 5:00:00 hrs.
  
  WARNING: Pump F1 closed because cannot deliver head at 10:00:00 hrs.
  
  WARNING: Pump P1 closed because cannot deliver head at 12:00:00 hrs.
  
  WARNING: Negative pressures at 14:00:00 hrs.
  WARNING: Pump K1 open but exceeds maximum flow at 14:00:00 hrs.
  WARNING: Pump P1 open but exceeds maximum flow at 14:00:00 hrs.
  
  WARNING: Pump F1 closed because cannot deliver head at 15:00:00 hrs.
  
  WARNING: Pump P1 closed because cannot deliver head at 16:00:00 hrs.
  
  WARNING: Pump F1 closed because cannot deliver head at 18:00:00 hrs.
  
  WARNING: Pump F1 closed because cannot deliver head at 20:00:00 hrs.
  
  WARNING: Pump P1 closed because cannot deliver head at 24:00:00 hrs.
  
  WARNING: Pump F1 closed because cannot deliver head at 25:00:00 hrs.
  WARNING: Pump P1 closed because cannot deliver head at 25:00:00 hrs.
  
  WARNING: Pump F1 closed because cannot deliver head at 26:00:00 hrs.
  WARNING: Pump P1 closed because cannot deliver head at 26:00:00 hrs.
  
  WARNING: Pump K1 closed because cannot deliver head at 27:00:00 hrs.
  
  WARNING: Pump P1 closed because cannot deliver head at 28:00:00 hrs.
  
  WARNING: Pump K1 closed because cannot deliver head at 29:00:00 hrs.
  
  WARNING: Pump F1 closed because cannot deliver head at 30:00:00 hrs.
  
  WARNING: Negative pressures at 34:00:00 hrs.
  WARNING: Pump F1 closed because cannot deliver head at 34:00:00 hrs.
  WARNING: Pump P1 open but exceeds maximum flow at 34:00:00 hrs.
  
  WARNING: Pump F1 closed because cannot deliver head at 35:00:00 hrs.
  
  WARNING: Pump F1 closed because cannot deliver head at 36:00:00 hrs.
  
  WARNING: Pump F1 closed because cannot deliver head at 37:00:00 hrs.
  
  WARNING: Pump F1 closed because cannot deliver head at 38:00:00 hrs.
  
  WARNING: Negative pressures at 38:50:11 hrs.
  WARNING: Pump F1 closed because cannot deliver head at 38:50:11 hrs.
  WARNING: Pump P1 open but exceeds maximum flow at 38:50:11 hrs.
  
  WARNING: Negative pressures at 39:00:00 hrs.
  WARNING: Pump F1 closed because cannot deliver head at 39:00:00 hrs.
  WARNING: Pump P1 open but exceeds maximum flow at 39:00:00 hrs.
  
  WARNING: Negative pressures at 40:00:00 hrs.
  WARNING: Pump P1 open but exceeds maximum flow at 40:00:00 hrs.
  
  WARNING: Pump F1 closed because cannot deliver head at 42:00:00 hrs.
  
  WARNING: Pump F1 closed because cannot deliver head at 43:00:00 hrs.
  WARNING: Pump P1 closed because cannot deliver head at 43:00:00 hrs.
  
  WARNING: Negative pressures at 43:56:26 hrs.
  WARNING: Pump P1 open but exceeds maximum flow at 43:56:26 hrs.
  
  WARNING: Negative pressures at 44:00:00 hrs.
  WARNING: Pump P1 open but exceeds maximum flow at 44:00:00 hrs.
  
  WARNING: Pump P1 closed because cannot deliver head at 48:00:00 hrs.
  
  WARNING: Pump K1 closed because cannot deliver head at 49:00:00 hrs.
  
  WARNING: Pump F1 closed because cannot deliver head at 50:00:00 hrs.
  
  WARNING: Pump P1 closed because cannot deliver head at 51:00:00 hrs.
  
  WARNING: Pump F1 closed because cannot deliver head at 52:00:00 hrs.
  WARNING: Pump P1 closed because cannot deliver head at 52:00:00 hrs.
  
  WARNING: Pump F1 closed because cannot deliver head at 57:00:00 hrs.
  
  WARNING: Pump P1 closed because cannot deliver head at 59:00:00 hrs.
  
  WARNING: Pump F1 closed because cannot deliver head at 60:00:00 hrs.
  
  WARNING: Pump F1 closed because cannot deliver head at 64:00:00 hrs.
  
  WARNING: Pump P1 closed because cannot deliver head at 67:00:00 hrs.
  
  WARNING: Pump F1 closed because cannot deliver head at 68:00:00 hrs.
  
  WARNING: Negative pressures at 68:46:29 hrs.
  WARNING: Pump P1 open but exceeds maximum flow at 68:46:29 hrs.
  
  WARNING: Negative pressures at 69:00:00 hrs.
  WARNING: Pump P1 open but exceeds maximum flow at 69:00:00 hrs.
  
  WARNING: Pump F1 closed because cannot deliver head at 72:00:00 hrs.
  
  WARNING: Pump K1 closed because cannot deliver head at 73:00:00 hrs.
  
  WARNING: Pump F1 closed because cannot deliver head at 74:00:00 hrs.
  WARNING: Pump P1 closed because cannot deliver head at 74:00:00 hrs.
  
  WARNING: Pump P1 closed because cannot deliver head at 75:00:00 hrs.
  
  WARNING: Pump P1 closed because cannot deliver head at 76:00:00 hrs.
  
  WARNING: Pump F1 closed because cannot deliver head at 78:00:00 hrs.
  
  WARNING: Pump F1 closed because cannot deliver head at 79:00:00 hrs.
  
  WARNING: Pump F1 closed because cannot deliver head at 80:00:00 hrs.
  
  WARNING: Pump F1 closed because cannot deliver head at 82:00:00 hrs.
  
  WARNING: Pump F1 closed because cannot deliver head at 87:00:00 hrs.
  
  WARNING: Negative pressures at 88:00:00 hrs.
  WARNING: Pump P1 open but exceeds maximum flow at 88:00:00 hrs.
  
  WARNING: Pump P1 closed because cannot deliver head at 89:00:00 hrs.
  
  WARNING: Pump P1 closed because cannot deliver head at 90:00:00 hrs.
  
  WARNING: Pump F1 closed because cannot deliver head at 91:00:00 hrs.
  
  WARNING: Negative pressures at 91:36:36 hrs.
  WARNING: Pump F1 closed because cannot deliver head at 91:36:36 hrs.
  WARNING: Pump P1 open but exceeds maximum flow at 91:36:36 hrs.
  
  WARNING: Negative pressures at 92:00:00 hrs.
  WARNING: Pump F1 closed because cannot deliver head at 92:00:00 hrs.
  WARNING: Pump P1 open but exceeds maximum flow at 92:00:00 hrs.
  
  WARNING: Negative pressures at 93:00:00 hrs.
  WARNING: Pump P1 open but exceeds maximum flow at 93:00:00 hrs.
  
  WARNING: Pump P1 closed because cannot deliver head at 96:00:00 hrs.
  
  WARNING: Pump P1 closed because cannot deliver head at 97:00:00 hrs.
  
  WARNING: Pump K1 closed because cannot deliver head at 98:00:00 hrs.
  
  WARNING: Pump P1 closed because cannot deliver head at 99:00:00 hrs.
  
  WARNING: Pump F1 closed because cannot deliver head at 100:00:00 hrs.
  WARNING: Pump P1 closed because cannot deliver head at 100:00:00 hrs.
  
  WARNING: Pump F1 closed because cannot deliver head at 102:00:00 hrs.
  WARNING: Pump P1 closed because cannot deliver head at 102:00:00 hrs.
  
  WARNING: Pump F1 closed because cannot deliver head at 103:00:00 hrs.
  
  WARNING: Negative pressures at 104:00:00 hrs.
  WARNING: Pump F1 closed because cannot deliver head at 104:00:00 hrs.
  WARNING: Pump P1 open but exceeds maximum flow at 104:00:00 hrs.
  
  WARNING: Pump F1 closed because cannot deliver head at 105:00:00 hrs.
  
  WARNING: Pump F1 closed because cannot deliver head at 106:00:00 hrs.
  
  WARNING: Pump F1 closed because cannot deliver head at 108:00:00 hrs.
  
  WARNING: Negative pressures at 109:56:26 hrs.
  WARNING: Pump P1 open but exceeds maximum flow at 109:56:26 hrs.
  
  WARNING: Negative pressures at 110:00:00 hrs.
  WARNING: Pump P1 open but exceeds maximum flow at 110:00:00 hrs.
  
  WARNING: Pump P1 closed because cannot deliver head at 112:00:00 hrs.
  
  WARNING: Negative pressures at 112:28:35 hrs.
  WARNING: Pump P1 open but exceeds maximum flow at 112:28:35 hrs.
  
  WARNING: Pump F1 closed because cannot deliver head at 113:00:00 hrs.
  
  WARNING: Negative pressures at 113:20:12 hrs.
  WARNING: Pump F1 closed because cannot deliver head at 113:20:12 hrs.
  WARNING: Pump P1 open but exceeds maximum flow at 113:20:12 hrs.
  
  WARNING: Negative pressures at 114:00:00 hrs.
  WARNING: Pump F1 closed because cannot deliver head at 114:00:00 hrs.
  WARNING: Pump P1 open but exceeds maximum flow at 114:00:00 hrs.
  
  WARNING: Negative pressures at 115:00:00 hrs.
  WARNING: Pump P1 open but exceeds maximum flow at 115:00:00 hrs.
  
  WARNING: Negative pressures at 116:00:00 hrs.
  WARNING: Pump F1 closed because cannot deliver head at 116:00:00 hrs.
  WARNING: Pump P1 open but exceeds maximum flow at 116:00:00 hrs.
  
  WARNING: Negative pressures at 117:00:00 hrs.
  WARNING: Pump P1 open but exceeds maximum flow at 117:00:00 hrs.
  
  WARNING: Negative pressures at 118:00:00 hrs.
  WARNING: Pump P1 open but exceeds maximum flow at 118:00:00 hrs.
  
  WARNING: Pump K1 closed because cannot deliver head at 120:00:00 hrs.
  
  WARNING: Pump K1 closed because cannot deliver head at 121:00:00 hrs.
  
  WARNING: Pump K1 closed because cannot deliver head at 123:00:00 hrs.
  
  WARNING: Pump F1 closed because cannot deliver head at 124:00:00 hrs.
  WARNING: Pump K1 closed because cannot deliver head at 124:00:00 hrs.
  
  WARNING: Pump F1 closed because cannot deliver head at 126:00:00 hrs.
  WARNING: Pump P1 closed because cannot deliver head at 126:00:00 hrs.
  
  WARNING: Pump P1 closed because cannot deliver head at 127:00:00 hrs.
  
  WARNING: Pump F1 closed because cannot deliver head at 128:00:00 hrs.
  WARNING: Pump P1 closed because cannot deliver head at 128:00:00 hrs.
  
  WARNING: Pump P1 closed because cannot deliver head at 130:00:00 hrs.
  
  WARNING: Negative pressures at 132:00:00 hrs.
  WARNING: Pump F1 closed because cannot deliver head at 132:00:00 hrs.
  WARNING: Pump K1 open but exceeds maximum flow at 132:00:00 hrs.
  WARNING: Pump P1 open but exceeds maximum flow at 132:00:00 hrs.
  
  WARNING: Pump F1 closed because cannot deliver head at 133:00:00 hrs.
  
  WARNING: Pump F1 closed because cannot deliver head at 134:00:00 hrs.
  
  WARNING: Pump F1 closed because cannot deliver head at 135:00:00 hrs.
  
  WARNING: Negative pressures at 135:35:03 hrs.
  WARNING: Pump P1 open but exceeds maximum flow at 135:35:03 hrs.
  
  WARNING: Negative pressures at 136:00:00 hrs.
  WARNING: Pump P1 open but exceeds maximum flow at 136:00:00 hrs.
  
  WARNING: Pump P1 closed because cannot deliver head at 137:00:00 hrs.
  
  WARNING: Pump F1 closed because cannot deliver head at 138:00:00 hrs.
  
  WARNING: Pump P1 closed because cannot deliver head at 139:00:00 hrs.
  
  WARNING: Negative pressures at 140:52:41 hrs.
  WARNING: Pump P1 open but exceeds maximum flow at 140:52:41 hrs.
  
  WARNING: Pump F1 closed because cannot deliver head at 141:00:00 hrs.
  
  WARNING: Negative pressures at 141:04:09 hrs.
  WARNING: Pump F1 closed because cannot deliver head at 141:04:09 hrs.
  WARNING: Pump P1 open but exceeds maximum flow at 141:04:09 hrs.
  
  WARNING: Negative pressures at 142:00:00 hrs.
  WARNING: Pump F1 closed because cannot deliver head at 142:00:00 hrs.
  WARNING: Pump P1 open but exceeds maximum flow at 142:00:00 hrs.
  
  WARNING: Negative pressures at 143:00:00 hrs.
  WARNING: Pump P1 open but exceeds maximum flow at 143:00:00 hrs.
  
  WARNING: Pump P1 closed because cannot deliver head at 144:00:00 hrs.
  
  WARNING: Pump F1 closed because cannot deliver head at 145:00:00 hrs.
  WARNING: Pump K1 closed because cannot deliver head at 145:00:00 hrs.
  
  WARNING: Pump F1 closed because cannot deliver head at 146:00:00 hrs.
  WARNING: Pump P1 closed because cannot deliver head at 146:00:00 hrs.
  
  WARNING: Pump P1 closed because cannot deliver head at 147:00:00 hrs.
  
  WARNING: Pump F1 closed because cannot deliver head at 148:00:00 hrs.
  WARNING: Pump P1 closed because cannot deliver head at 148:00:00 hrs.
  
  WARNING: Pump P1 closed because cannot deliver head at 149:00:00 hrs.
  
  WARNING: Pump F1 closed because cannot deliver head at 150:00:00 hrs.
  
  WARNING: Pump P1 closed because cannot deliver head at 151:00:00 hrs.
  
  WARNING: Pump F1 closed because cannot deliver head at 153:00:00 hrs.
  
  WARNING: Pump F1 closed because cannot deliver head at 159:00:00 hrs.
  
  WARNING: Pump F1 closed because cannot deliver head at 160:00:00 hrs.
  
  WARNING: Negative pressures at 160:01:02 hrs.
  WARNING: Pump P1 open but exceeds maximum flow at 160:01:02 hrs.
  
  WARNING: Negative pressures at 161:00:00 hrs.
  WARNING: Pump F1 closed because cannot deliver head at 161:00:00 hrs.
  WARNING: Pump P1 open but exceeds maximum flow at 161:00:00 hrs.
  
  WARNING: Negative pressures at 162:00:00 hrs.
  WARNING: Pump P1 open but exceeds maximum flow at 162:00:00 hrs.
  
  WARNING: Pump F1 closed because cannot deliver head at 164:00:00 hrs.
  
  WARNING: Pump P1 closed because cannot deliver head at 166:00:00 hrs.
  
  WARNING: Negative pressures at 166:09:38 hrs.
  WARNING: Pump P1 open but exceeds maximum flow at 166:09:38 hrs.
  
  WARNING: Pump P1 closed because cannot deliver head at 168:00:00 hrs.
  
  WARNING: Pump F1 closed because cannot deliver head at 169:00:00 hrs.
  WARNING: Pump P1 closed because cannot deliver head at 169:00:00 hrs.
  
  WARNING: Pump P1 closed because cannot deliver head at 170:00:00 hrs.
  
  WARNING: Pump F1 closed because cannot deliver head at 171:00:00 hrs.
  WARNING: Pump K1 closed because cannot deliver head at 171:00:00 hrs.
  
  WARNING: Pump P1 closed because cannot deliver head at 172:00:00 hrs.
  
  WARNING: Pump F1 closed because cannot deliver head at 174:00:00 hrs.
  
  WARNING: Pump F1 closed because cannot deliver head at 177:00:00 hrs.
  
  WARNING: Negative pressures at 178:00:00 hrs.
  WARNING: Pump P1 open but exceeds maximum flow at 178:00:00 hrs.
  
  WARNING: Pump F1 closed because cannot deliver head at 183:00:00 hrs.
  
  WARNING: Pump P1 closed because cannot deliver head at 186:00:00 hrs.
  
  WARNING: Negative pressures at 187:00:00 hrs.
  WARNING: Pump F1 closed because cannot deliver head at 187:00:00 hrs.
  WARNING: Pump P1 open but exceeds maximum flow at 187:00:00 hrs.
  
  WARNING: Pump F1 closed because cannot deliver head at 191:00:00 hrs.
  WARNING: Pump P1 closed because cannot deliver head at 191:00:00 hrs.
  
  WARNING: Pump F1 closed because cannot deliver head at 193:00:00 hrs.
  WARNING: Pump K1 closed because cannot deliver head at 193:00:00 hrs.
  
  WARNING: Pump P1 closed because cannot deliver head at 195:00:00 hrs.
  
  WARNING: Pump K1 closed because cannot deliver head at 196:00:00 hrs.
  
  WARNING: Pump P1 closed because cannot deliver head at 198:00:00 hrs.
  
  WARNING: Pump F1 closed because cannot deliver head at 199:00:00 hrs.
  
  WARNING: Pump F1 closed because cannot deliver head at 200:00:00 hrs.
  WARNING: Pump P1 closed because cannot deliver head at 200:00:00 hrs.
  
  WARNING: Pump F1 closed because cannot deliver head at 204:00:00 hrs.
  
  WARNING: Pump F1 closed because cannot deliver head at 205:00:00 hrs.
  
  WARNING: Pump P1 closed because cannot deliver head at 207:00:00 hrs.
  
  WARNING: Negative pressures at 208:55:48 hrs.
  WARNING: Pump P1 open but exceeds maximum flow at 208:55:48 hrs.
  
  WARNING: Pump P1 closed because cannot deliver head at 211:00:00 hrs.
  
  WARNING: Pump F1 closed because cannot deliver head at 214:00:00 hrs.
  
  WARNING: Negative pressures at 214:03:30 hrs.
  WARNING: Pump P1 open but exceeds maximum flow at 214:03:30 hrs.
  
  WARNING: Pump K1 closed because cannot deliver head at 217:00:00 hrs.
  
  WARNING: Pump P1 closed because cannot deliver head at 218:00:00 hrs.
  
  WARNING: Pump F1 closed because cannot deliver head at 219:00:00 hrs.
  WARNING: Pump K1 closed because cannot deliver head at 219:00:00 hrs.
  
  WARNING: Pump P1 closed because cannot deliver head at 220:00:00 hrs.
  
  WARNING: Pump F1 closed because cannot deliver head at 222:00:00 hrs.
  WARNING: Pump P1 closed because cannot deliver head at 222:00:00 hrs.
  
  WARNING: Pump F1 closed because cannot deliver head at 223:00:00 hrs.
  WARNING: Pump P1 closed because cannot deliver head at 223:00:00 hrs.
  
  WARNING: Pump F1 closed because cannot deliver head at 226:00:00 hrs.
  WARNING: Pump P1 closed because cannot deliver head at 226:00:00 hrs.
  
  WARNING: Pump F1 closed because cannot deliver head at 227:00:00 hrs.
  
  WARNING: Negative pressures at 227:36:43 hrs.
  WARNING: Pump F1 closed because cannot deliver head at 227:36:43 hrs.
  WARNING: Pump P1 open but exceeds maximum flow at 227:36:43 hrs.
  
  WARNING: Negative pressures at 228:00:00 hrs.
  WARNING: Pump F1 closed because cannot deliver head at 228:00:00 hrs.
  WARNING: Pump P1 open but exceeds maximum flow at 228:00:00 hrs.
  
  WARNING: Negative pressures at 229:00:00 hrs.
  WARNING: Pump P1 open but exceeds maximum flow at 229:00:00 hrs.
  
  WARNING: Pump F1 closed because cannot deliver head at 230:00:00 hrs.
  
  WARNING: Negative pressures at 232:00:00 hrs.
  WARNING: Pump P1 open but exceeds maximum flow at 232:00:00 hrs.
  
  WARNING: Negative pressures at 233:00:00 hrs.
  WARNING: Pump F1 closed because cannot deliver head at 233:00:00 hrs.
  WARNING: Pump P1 open but exceeds maximum flow at 233:00:00 hrs.
  
  WARNING: Negative pressures at 233:32:04 hrs.
  WARNING: Pump F1 closed because cannot deliver head at 233:32:04 hrs.
  WARNING: Pump P1 open but exceeds maximum flow at 233:32:04 hrs.
  
  WARNING: Negative pressures at 234:00:00 hrs.
  WARNING: Pump P1 open but exceeds maximum flow at 234:00:00 hrs.
  
  WARNING: Pump F1 closed because cannot deliver head at 236:00:00 hrs.
  
  WARNING: Negative pressures at 236:36:30 hrs.
  WARNING: Pump F1 closed because cannot deliver head at 236:36:30 hrs.
  WARNING: Pump P1 open but exceeds maximum flow at 236:36:30 hrs.
  
  WARNING: Negative pressures at 237:00:00 hrs.
  WARNING: Pump P1 open but exceeds maximum flow at 237:00:00 hrs.
  
  WARNING: Pump F1 closed because cannot deliver head at 239:00:00 hrs.
  WARNING: Pump P1 closed because cannot deliver head at 239:00:00 hrs.
  
  WARNING: Pump F1 closed because cannot deliver head at 241:00:00 hrs.
  WARNING: Pump P1 closed because cannot deliver head at 241:00:00 hrs.
  
  WARNING: Pump K1 closed because cannot deliver head at 242:00:00 hrs.
  
  WARNING: Pump P1 closed because cannot deliver head at 243:00:00 hrs.
  
  WARNING: Pump F1 closed because cannot deliver head at 244:00:00 hrs.
  WARNING: Pump P1 closed because cannot deliver head at 244:00:00 hrs.
  
  WARNING: Pump F1 closed because cannot deliver head at 246:00:00 hrs.
  WARNING: Pump P1 closed because cannot deliver head at 246:00:00 hrs.
  
  WARNING: Pump F1 closed because cannot deliver head at 248:00:00 hrs.
  WARNING: Pump P1 closed because cannot deliver head at 248:00:00 hrs.
  
  WARNING: Pump F1 closed because cannot deliver head at 249:00:00 hrs.
  
  WARNING: Pump F1 closed because cannot deliver head at 254:00:00 hrs.
  
  WARNING: Negative pressures at 254:44:17 hrs.
  WARNING: Pump P1 open but exceeds maximum flow at 254:44:17 hrs.
  
  WARNING: Negative pressures at 255:00:00 hrs.
  WARNING: Pump F1 closed because cannot deliver head at 255:00:00 hrs.
  WARNING: Pump P1 open but exceeds maximum flow at 255:00:00 hrs.
  
  WARNING: Negative pressures at 256:00:00 hrs.
  WARNING: Pump P1 open but exceeds maximum flow at 256:00:00 hrs.
  
  WARNING: Pump P1 closed because cannot deliver head at 257:00:00 hrs.
  
  WARNING: Negative pressures at 258:00:00 hrs.
  WARNING: Pump K1 open but exceeds maximum flow at 258:00:00 hrs.
  WARNING: Pump P1 open but exceeds maximum flow at 258:00:00 hrs.
  
  WARNING: Negative pressures at 258:14:52 hrs.
  WARNING: Pump P1 open but exceeds maximum flow at 258:14:52 hrs.
  
  WARNING: Negative pressures at 259:00:00 hrs.
  WARNING: Pump P1 open but exceeds maximum flow at 259:00:00 hrs.
  
  WARNING: Pump F1 closed because cannot deliver head at 260:00:00 hrs.
  
  WARNING: Negative pressures at 260:29:14 hrs.
  WARNING: Pump F1 closed because cannot deliver head at 260:29:14 hrs.
  WARNING: Pump P1 open but exceeds maximum flow at 260:29:14 hrs.
  
  WARNING: Negative pressures at 261:00:00 hrs.
  WARNING: Pump P1 open but exceeds maximum flow at 261:00:00 hrs.
  
  WARNING: Pump F1 closed because cannot deliver head at 263:00:00 hrs.
  WARNING: Pump P1 closed because cannot deliver head at 263:00:00 hrs.
  
  WARNING: Pump P1 closed because cannot deliver head at 264:00:00 hrs.
  
  WARNING: Pump F1 closed because cannot deliver head at 265:00:00 hrs.
  WARNING: Pump P1 closed because cannot deliver head at 265:00:00 hrs.
  
  WARNING: Pump K1 closed because cannot deliver head at 266:00:00 hrs.
  
  WARNING: Pump P1 closed because cannot deliver head at 267:00:00 hrs.
  
  WARNING: Pump K1 closed because cannot deliver head at 268:00:00 hrs.
  
  WARNING: Pump P1 closed because cannot deliver head at 271:00:00 hrs.
  
  WARNING: Negative pressures at 273:00:00 hrs.
  WARNING: Pump F1 closed because cannot deliver head at 273:00:00 hrs.
  WARNING: Pump K1 open but exceeds maximum flow at 273:00:00 hrs.
  WARNING: Pump P1 open but exceeds maximum flow at 273:00:00 hrs.
  
  WARNING: Negative pressures at 274:00:00 hrs.
  WARNING: Pump F1 closed because cannot deliver head at 274:00:00 hrs.
  WARNING: Pump K1 open but exceeds maximum flow at 274:00:00 hrs.
  WARNING: Pump P1 open but exceeds maximum flow at 274:00:00 hrs.
  
  WARNING: Pump F1 closed because cannot deliver head at 275:00:00 hrs.
  
  WARNING: Pump P1 closed because cannot deliver head at 278:00:00 hrs.
  
  WARNING: Pump F1 closed because cannot deliver head at 282:00:00 hrs.
  
  WARNING: Pump F1 closed because cannot deliver head at 283:00:00 hrs.
  
  WARNING: Negative pressures at 283:37:35 hrs.
  WARNING: Pump P1 open but exceeds maximum flow at 283:37:35 hrs.
  
  WARNING: Negative pressures at 284:00:00 hrs.
  WARNING: Pump P1 open but exceeds maximum flow at 284:00:00 hrs.
  
  WARNING: Pump F1 closed because cannot deliver head at 285:00:00 hrs.
  WARNING: Pump P1 closed because cannot deliver head at 285:00:00 hrs.
  
  WARNING: Negative pressures at 285:35:04 hrs.
  WARNING: Pump P1 open but exceeds maximum flow at 285:35:04 hrs.
  
  WARNING: Negative pressures at 286:00:00 hrs.
  WARNING: Pump P1 open but exceeds maximum flow at 286:00:00 hrs.
  
  WARNING: Pump F1 closed because cannot deliver head at 287:00:00 hrs.
  
  WARNING: Pump K1 closed because cannot deliver head at 288:00:00 hrs.
  
  WARNING: Pump F1 closed because cannot deliver head at 289:00:00 hrs.
  WARNING: Pump P1 closed because cannot deliver head at 289:00:00 hrs.
  
  WARNING: Pump F1 closed because cannot deliver head at 290:00:00 hrs.
  
  WARNING: Pump F1 closed because cannot deliver head at 291:00:00 hrs.
  WARNING: Pump P1 closed because cannot deliver head at 291:00:00 hrs.
  
  WARNING: Pump F1 closed because cannot deliver head at 292:00:00 hrs.
  WARNING: Pump P1 closed because cannot deliver head at 292:00:00 hrs.
  
  WARNING: Pump F1 closed because cannot deliver head at 293:00:00 hrs.
  
  WARNING: Pump P1 closed because cannot deliver head at 294:00:00 hrs.
  
  WARNING: Pump F1 closed because cannot deliver head at 295:00:00 hrs.
  
  WARNING: Pump F1 closed because cannot deliver head at 296:00:00 hrs.
  
  WARNING: Negative pressures at 296:49:05 hrs.
  WARNING: Pump F1 closed because cannot deliver head at 296:49:05 hrs.
  WARNING: Pump P1 open but exceeds maximum flow at 296:49:05 hrs.
  
  WARNING: Negative pressures at 297:00:00 hrs.
  WARNING: Pump F1 closed because cannot deliver head at 297:00:00 hrs.
  WARNING: Pump P1 open but exceeds maximum flow at 297:00:00 hrs.
  
  WARNING: Negative pressures at 298:00:00 hrs.
  WARNING: Pump P1 open but exceeds maximum flow at 298:00:00 hrs.
  
  WARNING: Pump F1 closed because cannot deliver head at 299:00:00 hrs.
  
  WARNING: Negative pressures at 299:27:41 hrs.
  WARNING: Pump F1 closed because cannot deliver head at 299:27:41 hrs.
  WARNING: Pump P1 open but exceeds maximum flow at 299:27:41 hrs.
  
  WARNING: Negative pressures at 300:00:00 hrs.
  WARNING: Pump P1 open but exceeds maximum flow at 300:00:00 hrs.
  
  WARNING: Pump F1 closed because cannot deliver head at 304:00:00 hrs.
  
  WARNING: Pump F1 closed because cannot deliver head at 305:00:00 hrs.
  
  WARNING: Negative pressures at 305:59:03 hrs.
  WARNING: Pump F1 closed because cannot deliver head at 305:59:03 hrs.
  WARNING: Pump P1 open but exceeds maximum flow at 305:59:03 hrs.
  
  WARNING: Negative pressures at 306:00:00 hrs.
  WARNING: Pump P1 open but exceeds maximum flow at 306:00:00 hrs.
  
  WARNING: Negative pressures at 307:00:00 hrs.
  WARNING: Pump P1 open but exceeds maximum flow at 307:00:00 hrs.
  
  WARNING: Pump F1 closed because cannot deliver head at 309:00:00 hrs.
  
  WARNING: Negative pressures at 309:43:46 hrs.
  WARNING: Pump P1 open but exceeds maximum flow at 309:43:46 hrs.
  
  WARNING: Negative pressures at 310:00:00 hrs.
  WARNING: Pump P1 open but exceeds maximum flow at 310:00:00 hrs.
  
  WARNING: Pump P1 closed because cannot deliver head at 311:00:00 hrs.
  
  WARNING: Pump P1 closed because cannot deliver head at 312:00:00 hrs.
  
  WARNING: Pump K1 closed because cannot deliver head at 313:00:00 hrs.
  
  WARNING: Pump P1 closed because cannot deliver head at 314:00:00 hrs.
  
  WARNING: Pump P1 closed because cannot deliver head at 315:00:00 hrs.
  
  WARNING: Pump P1 closed because cannot deliver head at 316:00:00 hrs.
  
  WARNING: Pump P1 closed because cannot deliver head at 319:00:00 hrs.
  
  WARNING: Negative pressures at 320:00:00 hrs.
  WARNING: Pump F1 closed because cannot deliver head at 320:00:00 hrs.
  WARNING: Pump P1 open but exceeds maximum flow at 320:00:00 hrs.
  
  WARNING: Pump F1 closed because cannot deliver head at 322:00:00 hrs.
  
  WARNING: Pump P1 closed because cannot deliver head at 324:00:00 hrs.
  
  WARNING: Negative pressures at 326:00:00 hrs.
  WARNING: Pump K1 open but exceeds maximum flow at 326:00:00 hrs.
  WARNING: Pump P1 open but exceeds maximum flow at 326:00:00 hrs.
  
  WARNING: Pump F1 closed because cannot deliver head at 327:00:00 hrs.
  
  WARNING: Pump P1 closed because cannot deliver head at 328:00:00 hrs.
  
  WARNING: Pump P1 closed because cannot deliver head at 329:00:00 hrs.
  
  WARNING: Negative pressures at 330:00:00 hrs.
  WARNING: Pump P1 open but exceeds maximum flow at 330:00:00 hrs.
  
  WARNING: Negative pressures at 332:00:00 hrs.
  WARNING: Pump K1 open but exceeds maximum flow at 332:00:00 hrs.
  WARNING: Pump P1 open but exceeds maximum flow at 332:00:00 hrs.
  
  WARNING: Pump F1 closed because cannot deliver head at 333:00:00 hrs.
  
  WARNING: Negative pressures at 333:42:44 hrs.
  WARNING: Pump P1 open but exceeds maximum flow at 333:42:44 hrs.
  
  WARNING: Negative pressures at 334:00:00 hrs.
  WARNING: Pump P1 open but exceeds maximum flow at 334:00:00 hrs.
  
  WARNING: Pump P1 closed because cannot deliver head at 335:00:00 hrs.
  
  WARNING: Pump F1 closed because cannot deliver head at 336:00:00 hrs.
  WARNING: Pump P1 closed because cannot deliver head at 336:00:00 hrs.
  
  WARNING: Pump F1 closed because cannot deliver head at 338:00:00 hrs.
  WARNING: Pump K1 closed because cannot deliver head at 338:00:00 hrs.
  
  WARNING: Pump K1 closed because cannot deliver head at 339:00:00 hrs.
  
  WARNING: Pump F1 closed because cannot deliver head at 340:00:00 hrs.
  WARNING: Pump K1 closed because cannot deliver head at 340:00:00 hrs.
  
  WARNING: Pump P1 closed because cannot deliver head at 341:00:00 hrs.
  
  WARNING: Pump F1 closed because cannot deliver head at 342:00:00 hrs.
  
  WARNING: Pump F1 closed because cannot deliver head at 344:00:00 hrs.
  
  WARNING: Negative pressures at 345:00:00 hrs.
  
  WARNING: Pump F1 closed because cannot deliver head at 346:00:00 hrs.
  
  WARNING: Pump F1 closed because cannot deliver head at 347:00:00 hrs.
  
  WARNING: Negative pressures at 347:12:36 hrs.
  WARNING: Pump F1 closed because cannot deliver head at 347:12:36 hrs.
  WARNING: Pump P1 open but exceeds maximum flow at 347:12:36 hrs.
  
  WARNING: Negative pressures at 348:00:00 hrs.
  WARNING: Pump F1 closed because cannot deliver head at 348:00:00 hrs.
  WARNING: Pump P1 open but exceeds maximum flow at 348:00:00 hrs.
  
  WARNING: Negative pressures at 349:00:00 hrs.
  WARNING: Pump P1 open but exceeds maximum flow at 349:00:00 hrs.
  
  WARNING: Negative pressures at 350:00:00 hrs.
  WARNING: Pump P1 open but exceeds maximum flow at 350:00:00 hrs.
  
  WARNING: Pump F1 closed because cannot deliver head at 351:00:00 hrs.
  
  WARNING: Pump F1 closed because cannot deliver head at 352:00:00 hrs.
  
  WARNING: Negative pressures at 352:39:25 hrs.
  WARNING: Pump F1 closed because cannot deliver head at 352:39:25 hrs.
  WARNING: Pump P1 open but exceeds maximum flow at 352:39:25 hrs.
  
  WARNING: Negative pressures at 353:00:00 hrs.
  WARNING: Pump F1 closed because cannot deliver head at 353:00:00 hrs.
  WARNING: Pump P1 open but exceeds maximum flow at 353:00:00 hrs.
  
  WARNING: Negative pressures at 354:00:00 hrs.
  WARNING: Pump F1 closed because cannot deliver head at 354:00:00 hrs.
  WARNING: Pump P1 open but exceeds maximum flow at 354:00:00 hrs.
  
  WARNING: Negative pressures at 355:00:00 hrs.
  WARNING: Pump P1 open but exceeds maximum flow at 355:00:00 hrs.
  
  WARNING: Negative pressures at 356:00:00 hrs.
  WARNING: Pump P1 open but exceeds maximum flow at 356:00:00 hrs.
  
  WARNING: Pump F1 closed because cannot deliver head at 357:00:00 hrs.
  WARNING: Pump P1 closed because cannot deliver head at 357:00:00 hrs.
  
  WARNING: Negative pressures at 357:38:15 hrs.
  WARNING: Pump F1 closed because cannot deliver head at 357:38:15 hrs.
  WARNING: Pump P1 open but exceeds maximum flow at 357:38:15 hrs.
  
  WARNING: Negative pressures at 358:00:00 hrs.
  WARNING: Pump F1 closed because cannot deliver head at 358:00:00 hrs.
  WARNING: Pump P1 open but exceeds maximum flow at 358:00:00 hrs.
  
  WARNING: Negative pressures at 359:00:00 hrs.
  WARNING: Pump P1 open but exceeds maximum flow at 359:00:00 hrs.
  
  WARNING: Pump K1 closed because cannot deliver head at 360:00:00 hrs.
  
  WARNING: Pump K1 closed because cannot deliver head at 361:00:00 hrs.
  
  WARNING: Pump K1 closed because cannot deliver head at 362:00:00 hrs.
  
  WARNING: Pump P1 closed because cannot deliver head at 363:00:00 hrs.
  
  WARNING: Pump F1 closed because cannot deliver head at 364:00:00 hrs.
  WARNING: Pump K1 closed because cannot deliver head at 364:00:00 hrs.
  
  WARNING: Pump F1 closed because cannot deliver head at 367:00:00 hrs.
  
  WARNING: Pump F1 closed because cannot deliver head at 370:00:00 hrs.
  WARNING: Pump P1 closed because cannot deliver head at 370:00:00 hrs.
  
  WARNING: Negative pressures at 371:00:00 hrs.
  WARNING: Pump F1 closed because cannot deliver head at 371:00:00 hrs.
  WARNING: Pump K1 open but exceeds maximum flow at 371:00:00 hrs.
  WARNING: Pump P1 open but exceeds maximum flow at 371:00:00 hrs.
  
  WARNING: Negative pressures at 372:37:03 hrs.
  WARNING: Pump P1 open but exceeds maximum flow at 372:37:03 hrs.
  
  WARNING: Negative pressures at 374:40:25 hrs.
  WARNING: Pump P1 open but exceeds maximum flow at 374:40:25 hrs.
  
  WARNING: Pump F1 closed because cannot deliver head at 375:00:00 hrs.
  
  WARNING: Negative pressures at 375:11:37 hrs.
  WARNING: Pump F1 closed because cannot deliver head at 375:11:37 hrs.
  WARNING: Pump P1 open but exceeds maximum flow at 375:11:37 hrs.
  
  WARNING: Negative pressures at 376:00:00 hrs.
  WARNING: Pump P1 open but exceeds maximum flow at 376:00:00 hrs.
  
  WARNING: Pump F1 closed because cannot deliver head at 381:00:00 hrs.
  
  WARNING: Pump F1 closed because cannot deliver head at 382:00:00 hrs.
  
  WARNING: Negative pressures at 382:50:35 hrs.
  WARNING: Pump P1 open but exceeds maximum flow at 382:50:35 hrs.
  
  WARNING: Negative pressures at 383:00:00 hrs.
  WARNING: Pump P1 open but exceeds maximum flow at 383:00:00 hrs.
  
  WARNING: Pump K1 closed because cannot deliver head at 384:00:00 hrs.
  
  WARNING: Pump P1 closed because cannot deliver head at 385:00:00 hrs.
  
  WARNING: Pump P1 closed because cannot deliver head at 386:00:00 hrs.
  
  WARNING: Pump P1 closed because cannot deliver head at 387:00:00 hrs.
  
  WARNING: Pump F1 closed because cannot deliver head at 388:00:00 hrs.
  WARNING: Pump P1 closed because cannot deliver head at 388:00:00 hrs.
  
  WARNING: Pump F1 closed because cannot deliver head at 389:00:00 hrs.
  
  WARNING: Pump F1 closed because cannot deliver head at 390:00:00 hrs.
  WARNING: Pump P1 closed because cannot deliver head at 390:00:00 hrs.
  
  WARNING: Negative pressures at 392:00:00 hrs.
  WARNING: Pump F1 closed because cannot deliver head at 392:00:00 hrs.
  WARNING: Pump P1 open but exceeds maximum flow at 392:00:00 hrs.
  
  WARNING: Negative pressures at 393:00:00 hrs.
  WARNING: Pump F1 closed because cannot deliver head at 393:00:00 hrs.
  WARNING: Pump P1 open but exceeds maximum flow at 393:00:00 hrs.
  
  WARNING: Pump F1 closed because cannot deliver head at 399:00:00 hrs.
  
  WARNING: Pump F1 closed because cannot deliver head at 400:00:00 hrs.
  
  WARNING: Pump F1 closed because cannot deliver head at 402:00:00 hrs.
  
  WARNING: Negative pressures at 402:44:54 hrs.
  WARNING: Pump F1 closed because cannot deliver head at 402:44:54 hrs.
  WARNING: Pump P1 open but exceeds maximum flow at 402:44:54 hrs.
  
  WARNING: Negative pressures at 403:00:00 hrs.
  WARNING: Pump P1 open but exceeds maximum flow at 403:00:00 hrs.
  
  WARNING: Pump F1 closed because cannot deliver head at 404:00:00 hrs.
  
  WARNING: Negative pressures at 404:19:23 hrs.
  WARNING: Pump P1 open but exceeds maximum flow at 404:19:23 hrs.
  
  WARNING: Negative pressures at 405:00:00 hrs.
  WARNING: Pump P1 open but exceeds maximum flow at 405:00:00 hrs.
  
  WARNING: Pump F1 closed because cannot deliver head at 407:00:00 hrs.
  
  WARNING: Pump K1 closed because cannot deliver head at 409:00:00 hrs.
  
  WARNING: Pump F1 closed because cannot deliver head at 410:00:00 hrs.
  WARNING: Pump K1 closed because cannot deliver head at 410:00:00 hrs.
  
  WARNING: Pump K1 closed because cannot deliver head at 411:00:00 hrs.
  
  WARNING: Pump P1 closed because cannot deliver head at 415:00:00 hrs.
  
  WARNING: Pump P1 closed because cannot deliver head at 416:00:00 hrs.
  
  WARNING: Pump F1 closed because cannot deliver head at 418:00:00 hrs.
  
  WARNING: Negative pressures at 421:00:00 hrs.
  WARNING: Pump P1 open but exceeds maximum flow at 421:00:00 hrs.
  
  WARNING: Pump F1 closed because cannot deliver head at 429:00:00 hrs.
  
  WARNING: Pump K1 closed because cannot deliver head at 432:00:00 hrs.
  
  WARNING: Pump F1 closed because cannot deliver head at 433:00:00 hrs.
  WARNING: Pump K1 closed because cannot deliver head at 433:00:00 hrs.
  
  WARNING: Pump P1 closed because cannot deliver head at 434:00:00 hrs.
  
  WARNING: Pump K1 closed because cannot deliver head at 435:00:00 hrs.
  
  WARNING: Pump K1 closed because cannot deliver head at 435:35:28 hrs.
  
  WARNING: Pump F1 closed because cannot deliver head at 436:00:00 hrs.
  WARNING: Pump P1 closed because cannot deliver head at 436:00:00 hrs.
  
  WARNING: Pump P1 closed because cannot deliver head at 437:00:00 hrs.
  
  WARNING: Pump P1 closed because cannot deliver head at 437:41:43 hrs.
  
  WARNING: Pump F1 closed because cannot deliver head at 438:00:00 hrs.
  
  WARNING: Negative pressures at 441:00:00 hrs.
  WARNING: Pump F1 closed because cannot deliver head at 441:00:00 hrs.
  WARNING: Pump K1 open but exceeds maximum flow at 441:00:00 hrs.
  WARNING: Pump P1 open but exceeds maximum flow at 441:00:00 hrs.
  
  WARNING: Negative pressures at 444:00:00 hrs.
  WARNING: Pump K1 open but exceeds maximum flow at 444:00:00 hrs.
  WARNING: Pump P1 open but exceeds maximum flow at 444:00:00 hrs.
  
  WARNING: Negative pressures at 445:00:00 hrs.
  WARNING: Pump F1 closed because cannot deliver head at 445:00:00 hrs.
  WARNING: Pump K1 open but exceeds maximum flow at 445:00:00 hrs.
  WARNING: Pump P1 open but exceeds maximum flow at 445:00:00 hrs.
  
  WARNING: Pump F1 closed because cannot deliver head at 446:00:00 hrs.
  
  WARNING: Pump F1 closed because cannot deliver head at 447:00:00 hrs.
  
  WARNING: Negative pressures at 451:00:00 hrs.
  WARNING: Pump K1 open but exceeds maximum flow at 451:00:00 hrs.
  WARNING: Pump P1 open but exceeds maximum flow at 451:00:00 hrs.
  
  WARNING: Pump P1 closed because cannot deliver head at 455:00:00 hrs.
  
  WARNING: Pump F1 closed because cannot deliver head at 457:00:00 hrs.
  WARNING: Pump P1 closed because cannot deliver head at 457:00:00 hrs.
  
  WARNING: Pump F1 closed because cannot deliver head at 458:00:00 hrs.
  WARNING: Pump P1 closed because cannot deliver head at 458:00:00 hrs.
  
  WARNING: Pump K1 closed because cannot deliver head at 459:00:00 hrs.
  
  WARNING: Pump P1 closed because cannot deliver head at 460:00:00 hrs.
  
  WARNING: Pump F1 closed because cannot deliver head at 461:00:00 hrs.
  WARNING: Pump K1 closed because cannot deliver head at 461:00:00 hrs.
  
  WARNING: Pump F1 closed because cannot deliver head at 463:00:00 hrs.
  
  WARNING: Negative pressures at 468:00:00 hrs.
  WARNING: Pump P1 open but exceeds maximum flow at 468:00:00 hrs.
  
  WARNING: Pump F1 closed because cannot deliver head at 470:00:00 hrs.
  WARNING: Pump P1 closed because cannot deliver head at 470:00:00 hrs.
  
  WARNING: Pump P1 closed because cannot deliver head at 472:00:00 hrs.
  
  WARNING: Pump F1 closed because cannot deliver head at 473:00:00 hrs.
  
  WARNING: Pump P1 closed because cannot deliver head at 474:00:00 hrs.
  
  WARNING: Negative pressures at 476:00:00 hrs.
  WARNING: Pump K1 open but exceeds maximum flow at 476:00:00 hrs.
  WARNING: Pump P1 open but exceeds maximum flow at 476:00:00 hrs.
  
  WARNING: Pump F1 closed because cannot deliver head at 477:00:00 hrs.
  
  WARNING: Pump K1 closed because cannot deliver head at 480:00:00 hrs.
  
  WARNING: Pump K1 closed because cannot deliver head at 481:00:00 hrs.
  
  WARNING: Pump P1 closed because cannot deliver head at 482:00:00 hrs.
  
  WARNING: Pump F1 closed because cannot deliver head at 483:00:00 hrs.
  WARNING: Pump K1 closed because cannot deliver head at 483:00:00 hrs.
  
  WARNING: Pump F1 closed because cannot deliver head at 484:00:00 hrs.
  WARNING: Pump K1 closed because cannot deliver head at 484:00:00 hrs.
  
  WARNING: Pump F1 closed because cannot deliver head at 485:00:00 hrs.
  WARNING: Pump P1 closed because cannot deliver head at 485:00:00 hrs.
  
  WARNING: Pump P1 closed because cannot deliver head at 486:00:00 hrs.
  
  WARNING: Pump P1 closed because cannot deliver head at 489:00:00 hrs.
  
  WARNING: Pump F1 closed because cannot deliver head at 490:00:00 hrs.
  
  WARNING: Pump F1 closed because cannot deliver head at 491:00:00 hrs.
  
  WARNING: Negative pressures at 492:00:00 hrs.
  WARNING: Pump K1 open but exceeds maximum flow at 492:00:00 hrs.
  WARNING: Pump P1 open but exceeds maximum flow at 492:00:00 hrs.
  
  WARNING: Pump P1 closed because cannot deliver head at 493:00:00 hrs.
  
  WARNING: Negative pressures at 494:00:00 hrs.
  WARNING: Pump F1 closed because cannot deliver head at 494:00:00 hrs.
  WARNING: Pump P1 open but exceeds maximum flow at 494:00:00 hrs.
  
  WARNING: Pump F1 closed because cannot deliver head at 495:00:00 hrs.
  
  WARNING: Pump F1 closed because cannot deliver head at 496:00:00 hrs.
  
  WARNING: Negative pressures at 496:00:52 hrs.
  WARNING: Pump F1 closed because cannot deliver head at 496:00:52 hrs.
  WARNING: Pump P1 open but exceeds maximum flow at 496:00:52 hrs.
  
  WARNING: Negative pressures at 497:00:00 hrs.
  WARNING: Pump P1 open but exceeds maximum flow at 497:00:00 hrs.
  
  WARNING: Negative pressures at 499:00:00 hrs.
  WARNING: Pump F1 closed because cannot deliver head at 499:00:00 hrs.
  
  WARNING: Negative pressures at 502:35:01 hrs.
  WARNING: Pump P1 open but exceeds maximum flow at 502:35:01 hrs.
  
  WARNING: Pump P1 closed because cannot deliver head at 503:00:00 hrs.
  
  WARNING: Pump F1 closed because cannot deliver head at 504:00:00 hrs.
  
  WARNING: Pump K1 closed because cannot deliver head at 505:00:00 hrs.
  
  WARNING: Pump F1 closed because cannot deliver head at 506:00:00 hrs.
  WARNING: Pump P1 closed because cannot deliver head at 506:00:00 hrs.
  
  WARNING: Pump P1 closed because cannot deliver head at 507:00:00 hrs.
  
  WARNING: Pump K1 closed because cannot deliver head at 508:00:00 hrs.
  
  WARNING: Pump P1 closed because cannot deliver head at 510:00:00 hrs.
  
  WARNING: Pump P1 closed because cannot deliver head at 512:00:00 hrs.
  
  WARNING: Negative pressures at 513:00:00 hrs.
  WARNING: Pump P1 open but exceeds maximum flow at 513:00:00 hrs.
  
  WARNING: Pump F1 closed because cannot deliver head at 517:00:00 hrs.
  
  WARNING: Negative pressures at 518:00:00 hrs.
  WARNING: Pump P1 open but exceeds maximum flow at 518:00:00 hrs.
  
  WARNING: Negative pressures at 522:00:00 hrs.
  WARNING: Pump P1 open but exceeds maximum flow at 522:00:00 hrs.
  
  WARNING: Pump F1 closed because cannot deliver head at 524:00:00 hrs.
  
  WARNING: Pump F1 closed because cannot deliver head at 527:00:00 hrs.
  WARNING: Pump P1 closed because cannot deliver head at 527:00:00 hrs.
  
  WARNING: Negative pressures at 527:25:36 hrs.
  WARNING: Pump P1 open but exceeds maximum flow at 527:25:36 hrs.
  
  WARNING: Pump K1 closed because cannot deliver head at 528:00:00 hrs.
  
  WARNING: Pump P1 closed because cannot deliver head at 529:00:00 hrs.
  
  WARNING: Pump K1 closed because cannot deliver head at 531:00:00 hrs.
  
  WARNING: Pump P1 closed because cannot deliver head at 532:00:00 hrs.
  
  WARNING: Pump P1 closed because cannot deliver head at 533:00:00 hrs.
  
  WARNING: Pump P1 closed because cannot deliver head at 534:00:00 hrs.
  
  WARNING: Pump F1 closed because cannot deliver head at 535:00:00 hrs.
  WARNING: Pump P1 closed because cannot deliver head at 535:00:00 hrs.
  
  WARNING: Pump F1 closed because cannot deliver head at 540:00:00 hrs.
  
  WARNING: Pump P1 closed because cannot deliver head at 541:00:00 hrs.
  
  WARNING: Negative pressures at 542:00:00 hrs.
  WARNING: Pump F1 closed because cannot deliver head at 542:00:00 hrs.
  WARNING: Pump K1 open but exceeds maximum flow at 542:00:00 hrs.
  WARNING: Pump P1 open but exceeds maximum flow at 542:00:00 hrs.
  
  WARNING: Pump F1 closed because cannot deliver head at 543:00:00 hrs.
  
  WARNING: Negative pressures at 543:47:43 hrs.
  WARNING: Pump F1 closed because cannot deliver head at 543:47:43 hrs.
  WARNING: Pump P1 open but exceeds maximum flow at 543:47:43 hrs.
  
  WARNING: Negative pressures at 544:00:00 hrs.
  WARNING: Pump F1 closed because cannot deliver head at 544:00:00 hrs.
  WARNING: Pump P1 open but exceeds maximum flow at 544:00:00 hrs.
  
  WARNING: Negative pressures at 545:00:00 hrs.
  WARNING: Pump P1 open but exceeds maximum flow at 545:00:00 hrs.
  
  WARNING: Negative pressures at 548:00:00 hrs.
  WARNING: Pump K1 open but exceeds maximum flow at 548:00:00 hrs.
  WARNING: Pump P1 open but exceeds maximum flow at 548:00:00 hrs.
  
  WARNING: Pump P1 closed because cannot deliver head at 552:00:00 hrs.
  
  WARNING: Pump F1 closed because cannot deliver head at 553:00:00 hrs.
  
  WARNING: Pump F1 closed because cannot deliver head at 554:00:00 hrs.
  WARNING: Pump K1 closed because cannot deliver head at 554:00:00 hrs.
  
  WARNING: Pump F1 closed because cannot deliver head at 555:00:00 hrs.
  WARNING: Pump P1 closed because cannot deliver head at 555:00:00 hrs.
  
  WARNING: Pump F1 closed because cannot deliver head at 556:00:00 hrs.
  WARNING: Pump P1 closed because cannot deliver head at 556:00:00 hrs.
  
  WARNING: Pump P1 closed because cannot deliver head at 557:00:00 hrs.
  
  WARNING: Pump F1 closed because cannot deliver head at 558:00:00 hrs.
  WARNING: Pump P1 closed because cannot deliver head at 558:00:00 hrs.
  
  WARNING: Pump P1 closed because cannot deliver head at 560:00:00 hrs.
  
  WARNING: Negative pressures at 561:00:00 hrs.
  WARNING: Pump K1 open but exceeds maximum flow at 561:00:00 hrs.
  WARNING: Pump P1 open but exceeds maximum flow at 561:00:00 hrs.
  
  WARNING: Pump F1 closed because cannot deliver head at 564:00:00 hrs.
  
  WARNING: Pump F1 closed because cannot deliver head at 565:00:00 hrs.
  
  WARNING: Pump F1 closed because cannot deliver head at 566:00:00 hrs.
  
  WARNING: Negative pressures at 566:40:33 hrs.
  WARNING: Pump F1 closed because cannot deliver head at 566:40:33 hrs.
  WARNING: Pump P1 open but exceeds maximum flow at 566:40:33 hrs.
  
  WARNING: Negative pressures at 567:00:00 hrs.
  WARNING: Pump P1 open but exceeds maximum flow at 567:00:00 hrs.
  
  WARNING: Pump P1 closed because cannot deliver head at 569:00:00 hrs.
  
  WARNING: Pump F1 closed because cannot deliver head at 574:00:00 hrs.
  WARNING: Pump P1 closed because cannot deliver head at 574:00:00 hrs.
  
  WARNING: Pump F1 closed because cannot deliver head at 575:00:00 hrs.
  
  WARNING: Pump P1 closed because cannot deliver head at 576:00:00 hrs.
  
  WARNING: Pump F1 closed because cannot deliver head at 577:00:00 hrs.
  
  WARNING: Pump F1 closed because cannot deliver head at 578:00:00 hrs.
  WARNING: Pump K1 closed because cannot deliver head at 578:00:00 hrs.
  
  WARNING: Pump P1 closed because cannot deliver head at 579:00:00 hrs.
  
  WARNING: Pump K1 closed because cannot deliver head at 580:00:00 hrs.
  
  WARNING: Pump K1 closed because cannot deliver head at 581:00:00 hrs.
  
  WARNING: Pump P1 closed because cannot deliver head at 582:00:00 hrs.
  
  WARNING: Pump F1 closed because cannot deliver head at 584:00:00 hrs.
  
  WARNING: Pump F1 closed because cannot deliver head at 585:00:00 hrs.
  
  WARNING: Negative pressures at 586:00:00 hrs.
  WARNING: Pump K1 open but exceeds maximum flow at 586:00:00 hrs.
  WARNING: Pump P1 open but exceeds maximum flow at 586:00:00 hrs.
  
  WARNING: Negative pressures at 591:00:00 hrs.
  WARNING: Pump P1 open but exceeds maximum flow at 591:00:00 hrs.
  
  WARNING: Pump P1 closed because cannot deliver head at 593:00:00 hrs.
  
  WARNING: Pump F1 closed because cannot deliver head at 598:00:00 hrs.
  
  WARNING: Negative pressures at 598:34:33 hrs.
  WARNING: Pump F1 closed because cannot deliver head at 598:34:33 hrs.
  WARNING: Pump P1 open but exceeds maximum flow at 598:34:33 hrs.
  
  WARNING: Negative pressures at 599:00:00 hrs.
  WARNING: Pump P1 open but exceeds maximum flow at 599:00:00 hrs.
  
  WARNING: Negative pressures at 600:00:00 hrs.
  WARNING: Pump P1 open but exceeds maximum flow at 600:00:00 hrs.
  
  WARNING: Pump P1 closed because cannot deliver head at 601:00:00 hrs.
  
  WARNING: Pump F1 closed because cannot deliver head at 602:00:00 hrs.
  WARNING: Pump K1 closed because cannot deliver head at 602:00:00 hrs.
  
  WARNING: Pump K1 closed because cannot deliver head at 603:00:00 hrs.
  
  WARNING: Pump F1 closed because cannot deliver head at 604:00:00 hrs.
  
  WARNING: Pump F1 closed because cannot deliver head at 605:00:00 hrs.
  
  WARNING: Pump F1 closed because cannot deliver head at 607:00:00 hrs.
  
  WARNING: Negative pressures at 612:00:00 hrs.
  WARNING: Pump F1 closed because cannot deliver head at 612:00:00 hrs.
  WARNING: Pump P1 open but exceeds maximum flow at 612:00:00 hrs.
  
  WARNING: Pump F1 closed because cannot deliver head at 615:00:00 hrs.
  WARNING: Pump P1 closed because cannot deliver head at 615:00:00 hrs.
  
  WARNING: Negative pressures at 615:35:55 hrs.
  WARNING: Pump F1 closed because cannot deliver head at 615:35:55 hrs.
  WARNING: Pump P1 open but exceeds maximum flow at 615:35:55 hrs.
  
  WARNING: Negative pressures at 616:00:00 hrs.
  WARNING: Pump P1 open but exceeds maximum flow at 616:00:00 hrs.
  
  WARNING: Negative pressures at 620:00:00 hrs.
  WARNING: Pump F1 closed because cannot deliver head at 620:00:00 hrs.
  WARNING: Pump P1 open but exceeds maximum flow at 620:00:00 hrs.
  
  WARNING: Pump P1 closed because cannot deliver head at 623:00:00 hrs.
  
  WARNING: Pump K1 closed because cannot deliver head at 624:00:00 hrs.
  
  WARNING: Pump F1 closed because cannot deliver head at 625:00:00 hrs.
  WARNING: Pump K1 closed because cannot deliver head at 625:00:00 hrs.
  
  WARNING: Pump F1 closed because cannot deliver head at 626:00:00 hrs.
  WARNING: Pump P1 closed because cannot deliver head at 626:00:00 hrs.
  
  WARNING: Pump K1 closed because cannot deliver head at 627:00:00 hrs.
  
  WARNING: Pump F1 closed because cannot deliver head at 628:00:00 hrs.
  WARNING: Pump P1 closed because cannot deliver head at 628:00:00 hrs.
  
  WARNING: Pump K1 closed because cannot deliver head at 629:00:00 hrs.
  
  WARNING: Pump P1 closed because cannot deliver head at 630:00:00 hrs.
  
  WARNING: Negative pressures at 634:00:00 hrs.
  WARNING: Pump F1 closed because cannot deliver head at 634:00:00 hrs.
  WARNING: Pump K1 open but exceeds maximum flow at 634:00:00 hrs.
  WARNING: Pump P1 open but exceeds maximum flow at 634:00:00 hrs.
  
  WARNING: Pump F1 closed because cannot deliver head at 635:00:00 hrs.
  WARNING: Pump P1 closed because cannot deliver head at 635:00:00 hrs.
  
  WARNING: Pump P1 closed because cannot deliver head at 636:00:00 hrs.
  
  WARNING: Pump F1 closed because cannot deliver head at 637:00:00 hrs.
  
  WARNING: Pump F1 closed because cannot deliver head at 640:00:00 hrs.
  
  WARNING: Pump P1 closed because cannot deliver head at 641:00:00 hrs.
  
  WARNING: Pump F1 closed because cannot deliver head at 647:00:00 hrs.
  WARNING: Pump P1 closed because cannot deliver head at 647:00:00 hrs.
  
  WARNING: Pump P1 closed because cannot deliver head at 649:00:00 hrs.
  
  WARNING: Pump P1 closed because cannot deliver head at 651:00:00 hrs.
  
  WARNING: Pump F1 closed because cannot deliver head at 652:00:00 hrs.
  WARNING: Pump K1 closed because cannot deliver head at 652:00:00 hrs.
  
  WARNING: Pump P1 closed because cannot deliver head at 653:00:00 hrs.
  
  WARNING: Pump F1 closed because cannot deliver head at 654:00:00 hrs.
  
  WARNING: Pump P1 closed because cannot deliver head at 656:00:00 hrs.
  
  WARNING: Pump F1 closed because cannot deliver head at 659:00:00 hrs.
  WARNING: Pump P1 closed because cannot deliver head at 659:00:00 hrs.
  
  WARNING: Pump F1 closed because cannot deliver head at 663:00:00 hrs.
  
  WARNING: Pump F1 closed because cannot deliver head at 664:00:00 hrs.
  
  WARNING: Pump P1 closed because cannot deliver head at 665:00:00 hrs.
  
  WARNING: Pump F1 closed because cannot deliver head at 667:00:00 hrs.
  
  WARNING: Pump F1 closed because cannot deliver head at 668:00:00 hrs.
  
  WARNING: Negative pressures at 668:46:36 hrs.
  WARNING: Pump P1 open but exceeds maximum flow at 668:46:36 hrs.
  
  WARNING: Negative pressures at 669:00:00 hrs.
  WARNING: Pump P1 open but exceeds maximum flow at 669:00:00 hrs.
  
  WARNING: Pump K1 closed because cannot deliver head at 672:00:00 hrs.
  
  WARNING: Pump P1 closed because cannot deliver head at 673:00:00 hrs.
  
  WARNING: Pump P1 closed because cannot deliver head at 674:00:00 hrs.
  
  WARNING: Pump K1 closed because cannot deliver head at 675:00:00 hrs.
  
  WARNING: Pump F1 closed because cannot deliver head at 676:00:00 hrs.
  WARNING: Pump K1 closed because cannot deliver head at 676:00:00 hrs.
  
  WARNING: Pump F1 closed because cannot deliver head at 678:00:00 hrs.
  
  WARNING: Pump P1 closed because cannot deliver head at 679:00:00 hrs.
  
  WARNING: Negative pressures at 685:00:00 hrs.
  WARNING: Pump F1 closed because cannot deliver head at 685:00:00 hrs.
  WARNING: Pump P1 open but exceeds maximum flow at 685:00:00 hrs.
  
  WARNING: Pump F1 closed because cannot deliver head at 686:00:00 hrs.
  
  WARNING: Pump P1 closed because cannot deliver head at 687:00:00 hrs.
  
  WARNING: Negative pressures at 688:00:00 hrs.
  WARNING: Pump F1 closed because cannot deliver head at 688:00:00 hrs.
  WARNING: Pump K1 open but exceeds maximum flow at 688:00:00 hrs.
  WARNING: Pump P1 open but exceeds maximum flow at 688:00:00 hrs.
  
  WARNING: Pump F1 closed because cannot deliver head at 690:00:00 hrs.
  
  WARNING: Pump F1 closed because cannot deliver head at 692:00:00 hrs.
  
  WARNING: Pump P1 closed because cannot deliver head at 693:00:00 hrs.
  
  WARNING: Pump F1 closed because cannot deliver head at 695:00:00 hrs.
  
  WARNING: Pump P1 closed because cannot deliver head at 696:00:00 hrs.
  
  WARNING: Pump K1 closed because cannot deliver head at 697:00:00 hrs.
  
  WARNING: Pump F1 closed because cannot deliver head at 698:00:00 hrs.
  WARNING: Pump K1 closed because cannot deliver head at 698:00:00 hrs.
  
  WARNING: Pump P1 closed because cannot deliver head at 699:00:00 hrs.
  
  WARNING: Pump F1 closed because cannot deliver head at 700:00:00 hrs.
  WARNING: Pump P1 closed because cannot deliver head at 700:00:00 hrs.
  
  WARNING: Pump P1 closed because cannot deliver head at 701:00:00 hrs.
  
  WARNING: Pump F1 closed because cannot deliver head at 702:00:00 hrs.
  WARNING: Pump P1 closed because cannot deliver head at 702:00:00 hrs.
  
  WARNING: Pump P1 closed because cannot deliver head at 705:00:00 hrs.
  
  WARNING: Pump F1 closed because cannot deliver head at 708:00:00 hrs.
  
  WARNING: Pump F1 closed because cannot deliver head at 709:00:00 hrs.
  
  WARNING: Pump P1 closed because cannot deliver head at 713:00:00 hrs.
  
  WARNING: Pump F1 closed because cannot deliver head at 715:00:00 hrs.
  
  WARNING: Negative pressures at 716:00:00 hrs.
  WARNING: Pump P1 open but exceeds maximum flow at 716:00:00 hrs.
  
  WARNING: Negative pressures at 716:36:41 hrs.
  WARNING: Pump P1 open but exceeds maximum flow at 716:36:41 hrs.
  
  WARNING: Pump F1 closed because cannot deliver head at 717:00:00 hrs.
  
  WARNING: Negative pressures at 717:11:08 hrs.
  WARNING: Pump F1 closed because cannot deliver head at 717:11:08 hrs.
  WARNING: Pump P1 open but exceeds maximum flow at 717:11:08 hrs.
  
  WARNING: Negative pressures at 718:00:00 hrs.
  WARNING: Pump P1 open but exceeds maximum flow at 718:00:00 hrs.
  
  WARNING: Pump P1 closed because cannot deliver head at 720:00:00 hrs.
  
  WARNING: Pump K1 closed because cannot deliver head at 721:00:00 hrs.
  
  WARNING: Pump F1 closed because cannot deliver head at 722:00:00 hrs.
  WARNING: Pump P1 closed because cannot deliver head at 722:00:00 hrs.
  
  WARNING: Pump K1 closed because cannot deliver head at 723:00:00 hrs.
  
  WARNING: Pump P1 closed because cannot deliver head at 724:00:00 hrs.
  
  WARNING: Pump P1 closed because cannot deliver head at 725:00:00 hrs.
  
  WARNING: Pump F1 closed because cannot deliver head at 730:00:00 hrs.
  
  WARNING: Pump P1 closed because cannot deliver head at 732:00:00 hrs.
  
  WARNING: Negative pressures at 734:00:00 hrs.
  WARNING: Pump K1 open but exceeds maximum flow at 734:00:00 hrs.
  WARNING: Pump P1 open but exceeds maximum flow at 734:00:00 hrs.
  
  WARNING: Pump F1 closed because cannot deliver head at 735:00:00 hrs.
  
  WARNING: Pump P1 closed because cannot deliver head at 736:00:00 hrs.
  
  WARNING: Negative pressures at 737:05:52 hrs.
  WARNING: Pump P1 open but exceeds maximum flow at 737:05:52 hrs.
  
  WARNING: Pump F1 closed because cannot deliver head at 738:00:00 hrs.
  
  WARNING: Pump F1 closed because cannot deliver head at 740:00:00 hrs.
  
  WARNING: Negative pressures at 740:48:59 hrs.
  WARNING: Pump F1 closed because cannot deliver head at 740:48:59 hrs.
  WARNING: Pump P1 open but exceeds maximum flow at 740:48:59 hrs.
  
  WARNING: Negative pressures at 741:00:00 hrs.
  WARNING: Pump P1 open but exceeds maximum flow at 741:00:00 hrs.
  
  WARNING: Pump P1 closed because cannot deliver head at 744:00:00 hrs.
  
  WARNING: Pump F1 closed because cannot deliver head at 745:00:00 hrs.
  WARNING: Pump P1 closed because cannot deliver head at 745:00:00 hrs.
  
  WARNING: Pump F1 closed because cannot deliver head at 746:00:00 hrs.
  WARNING: Pump P1 closed because cannot deliver head at 746:00:00 hrs.
  
  WARNING: Pump K1 closed because cannot deliver head at 747:00:00 hrs.
  
  WARNING: Pump P1 closed because cannot deliver head at 748:00:00 hrs.
  
  WARNING: Pump K1 closed because cannot deliver head at 749:00:00 hrs.
  
  WARNING: Pump F1 closed because cannot deliver head at 750:00:00 hrs.
  
  WARNING: Negative pressures at 754:00:00 hrs.
  WARNING: Pump F1 closed because cannot deliver head at 754:00:00 hrs.
  WARNING: Pump P1 open but exceeds maximum flow at 754:00:00 hrs.
  
  WARNING: Pump F1 closed because cannot deliver head at 755:00:00 hrs.
  
  WARNING: Pump F1 closed because cannot deliver head at 756:00:00 hrs.
  
  WARNING: Pump F1 closed because cannot deliver head at 757:00:00 hrs.
  
  WARNING: Pump F1 closed because cannot deliver head at 758:00:00 hrs.
  
  WARNING: Negative pressures at 758:53:20 hrs.
  WARNING: Pump F1 closed because cannot deliver head at 758:53:20 hrs.
  WARNING: Pump P1 open but exceeds maximum flow at 758:53:20 hrs.
  
  WARNING: Negative pressures at 759:00:00 hrs.
  WARNING: Pump P1 open but exceeds maximum flow at 759:00:00 hrs.
  
  WARNING: Negative pressures at 760:00:00 hrs.
  WARNING: Pump P1 open but exceeds maximum flow at 760:00:00 hrs.
  
  WARNING: Pump F1 closed because cannot deliver head at 762:00:00 hrs.
  
  WARNING: Pump F1 closed because cannot deliver head at 763:00:00 hrs.
  WARNING: Pump P1 closed because cannot deliver head at 763:00:00 hrs.
  
  WARNING: Negative pressures at 763:56:26 hrs.
  WARNING: Pump F1 closed because cannot deliver head at 763:56:26 hrs.
  WARNING: Pump P1 open but exceeds maximum flow at 763:56:26 hrs.
  
  WARNING: Negative pressures at 764:00:00 hrs.
  WARNING: Pump P1 open but exceeds maximum flow at 764:00:00 hrs.
  
  WARNING: Pump P1 closed because cannot deliver head at 768:00:00 hrs.
  
  WARNING: Pump K1 closed because cannot deliver head at 769:00:00 hrs.
  
  WARNING: Pump F1 closed because cannot deliver head at 770:00:00 hrs.
  
  WARNING: Pump P1 closed because cannot deliver head at 771:00:00 hrs.
  
  WARNING: Pump F1 closed because cannot deliver head at 772:00:00 hrs.
  WARNING: Pump P1 closed because cannot deliver head at 772:00:00 hrs.
  
  WARNING: Pump F1 closed because cannot deliver head at 777:00:00 hrs.
  
  WARNING: Pump P1 closed because cannot deliver head at 779:00:00 hrs.
  
  WARNING: Pump F1 closed because cannot deliver head at 780:00:00 hrs.
  
  WARNING: Pump F1 closed because cannot deliver head at 784:00:00 hrs.
  
  WARNING: Pump P1 closed because cannot deliver head at 787:00:00 hrs.
  
  WARNING: Pump F1 closed because cannot deliver head at 788:00:00 hrs.
  
  WARNING: Negative pressures at 788:46:29 hrs.
  WARNING: Pump F1 closed because cannot deliver head at 788:46:29 hrs.
  WARNING: Pump P1 open but exceeds maximum flow at 788:46:29 hrs.
  
  WARNING: Negative pressures at 789:00:00 hrs.
  WARNING: Pump P1 open but exceeds maximum flow at 789:00:00 hrs.
  
  WARNING: Pump F1 closed because cannot deliver head at 792:00:00 hrs.
  
  WARNING: Pump K1 closed because cannot deliver head at 793:00:00 hrs.
  
  WARNING: Pump F1 closed because cannot deliver head at 794:00:00 hrs.
  WARNING: Pump P1 closed because cannot deliver head at 794:00:00 hrs.
  
  WARNING: Pump P1 closed because cannot deliver head at 795:00:00 hrs.
  
  WARNING: Pump P1 closed because cannot deliver head at 796:00:00 hrs.
  
  WARNING: Pump F1 closed because cannot deliver head at 798:00:00 hrs.
  
  WARNING: Pump F1 closed because cannot deliver head at 799:00:00 hrs.
  
  WARNING: Pump F1 closed because cannot deliver head at 800:00:00 hrs.
  
  WARNING: Pump F1 closed because cannot deliver head at 802:00:00 hrs.
  
  WARNING: Pump F1 closed because cannot deliver head at 807:00:00 hrs.
  
  WARNING: Negative pressures at 808:00:00 hrs.
  WARNING: Pump P1 open but exceeds maximum flow at 808:00:00 hrs.
  
  WARNING: Pump P1 closed because cannot deliver head at 809:00:00 hrs.
  
  WARNING: Pump P1 closed because cannot deliver head at 810:00:00 hrs.
  
  WARNING: Pump F1 closed because cannot deliver head at 811:00:00 hrs.
  
  WARNING: Negative pressures at 811:36:36 hrs.
  WARNING: Pump P1 open but exceeds maximum flow at 811:36:36 hrs.
  
  WARNING: Negative pressures at 812:00:00 hrs.
  WARNING: Pump F1 closed because cannot deliver head at 812:00:00 hrs.
  WARNING: Pump P1 open but exceeds maximum flow at 812:00:00 hrs.
  
  WARNING: Negative pressures at 813:00:00 hrs.
  WARNING: Pump P1 open but exceeds maximum flow at 813:00:00 hrs.
  
  WARNING: Pump P1 closed because cannot deliver head at 816:00:00 hrs.
  
  WARNING: Pump P1 closed because cannot deliver head at 817:00:00 hrs.
  
  WARNING: Pump K1 closed because cannot deliver head at 818:00:00 hrs.
  
  WARNING: Pump P1 closed because cannot deliver head at 819:00:00 hrs.
  
  WARNING: Pump F1 closed because cannot deliver head at 820:00:00 hrs.
  WARNING: Pump P1 closed because cannot deliver head at 820:00:00 hrs.
  
  WARNING: Pump F1 closed because cannot deliver head at 822:00:00 hrs.
  WARNING: Pump P1 closed because cannot deliver head at 822:00:00 hrs.
  
  WARNING: Pump F1 closed because cannot deliver head at 823:00:00 hrs.
  
  WARNING: Negative pressures at 824:00:00 hrs.
  WARNING: Pump F1 closed because cannot deliver head at 824:00:00 hrs.
  WARNING: Pump P1 open but exceeds maximum flow at 824:00:00 hrs.
  
  WARNING: Pump F1 closed because cannot deliver head at 825:00:00 hrs.
  
  WARNING: Pump F1 closed because cannot deliver head at 826:00:00 hrs.
  
  WARNING: Pump F1 closed because cannot deliver head at 828:00:00 hrs.
  
  WARNING: Negative pressures at 829:56:26 hrs.
  WARNING: Pump P1 open but exceeds maximum flow at 829:56:26 hrs.
  
  WARNING: Negative pressures at 830:00:00 hrs.
  WARNING: Pump P1 open but exceeds maximum flow at 830:00:00 hrs.
  
  WARNING: Pump P1 closed because cannot deliver head at 832:00:00 hrs.
  
  WARNING: Negative pressures at 832:28:35 hrs.
  WARNING: Pump P1 open but exceeds maximum flow at 832:28:35 hrs.
  
  WARNING: Pump F1 closed because cannot deliver head at 833:00:00 hrs.
  
  WARNING: Negative pressures at 833:20:12 hrs.
  WARNING: Pump F1 closed because cannot deliver head at 833:20:12 hrs.
  WARNING: Pump P1 open but exceeds maximum flow at 833:20:12 hrs.
  
  WARNING: Negative pressures at 834:00:00 hrs.
  WARNING: Pump F1 closed because cannot deliver head at 834:00:00 hrs.
  WARNING: Pump P1 open but exceeds maximum flow at 834:00:00 hrs.
  
  WARNING: Negative pressures at 835:00:00 hrs.
  WARNING: Pump F1 closed because cannot deliver head at 835:00:00 hrs.
  WARNING: Pump P1 open but exceeds maximum flow at 835:00:00 hrs.
  
  WARNING: Negative pressures at 836:00:00 hrs.
  WARNING: Pump F1 closed because cannot deliver head at 836:00:00 hrs.
  WARNING: Pump P1 open but exceeds maximum flow at 836:00:00 hrs.
  
  WARNING: Negative pressures at 837:00:00 hrs.
  WARNING: Pump P1 open but exceeds maximum flow at 837:00:00 hrs.
  
  WARNING: Negative pressures at 838:00:00 hrs.
  WARNING: Pump P1 open but exceeds maximum flow at 838:00:00 hrs.
  
  WARNING: Pump K1 closed because cannot deliver head at 840:00:00 hrs.
  
  WARNING: Pump K1 closed because cannot deliver head at 841:00:00 hrs.
  
  WARNING: Pump K1 closed because cannot deliver head at 843:00:00 hrs.
  
  WARNING: Pump F1 closed because cannot deliver head at 844:00:00 hrs.
  WARNING: Pump K1 closed because cannot deliver head at 844:00:00 hrs.
  
  WARNING: Pump F1 closed because cannot deliver head at 846:00:00 hrs.
  WARNING: Pump P1 closed because cannot deliver head at 846:00:00 hrs.
  
  WARNING: Pump P1 closed because cannot deliver head at 847:00:00 hrs.
  
  WARNING: Pump F1 closed because cannot deliver head at 848:00:00 hrs.
  WARNING: Pump P1 closed because cannot deliver head at 848:00:00 hrs.
  
  WARNING: Pump P1 closed because cannot deliver head at 850:00:00 hrs.
  
  WARNING: Negative pressures at 852:00:00 hrs.
  WARNING: Pump F1 closed because cannot deliver head at 852:00:00 hrs.
  WARNING: Pump K1 open but exceeds maximum flow at 852:00:00 hrs.
  WARNING: Pump P1 open but exceeds maximum flow at 852:00:00 hrs.
  
  WARNING: Pump F1 closed because cannot deliver head at 853:00:00 hrs.
  
  WARNING: Pump F1 closed because cannot deliver head at 854:00:00 hrs.
  
  WARNING: Pump F1 closed because cannot deliver head at 855:00:00 hrs.
  
  WARNING: Negative pressures at 855:35:03 hrs.
  WARNING: Pump F1 closed because cannot deliver head at 855:35:03 hrs.
  WARNING: Pump P1 open but exceeds maximum flow at 855:35:03 hrs.
  
  WARNING: Negative pressures at 856:00:00 hrs.
  WARNING: Pump P1 open but exceeds maximum flow at 856:00:00 hrs.
  
  WARNING: Pump P1 closed because cannot deliver head at 857:00:00 hrs.
  
  WARNING: Pump F1 closed because cannot deliver head at 858:00:00 hrs.
  
  WARNING: Pump P1 closed because cannot deliver head at 859:00:00 hrs.
  
  WARNING: Negative pressures at 860:52:41 hrs.
  WARNING: Pump P1 open but exceeds maximum flow at 860:52:41 hrs.
  
  WARNING: Pump F1 closed because cannot deliver head at 861:00:00 hrs.
  
  WARNING: Negative pressures at 861:04:09 hrs.
  WARNING: Pump F1 closed because cannot deliver head at 861:04:09 hrs.
  WARNING: Pump P1 open but exceeds maximum flow at 861:04:09 hrs.
  
  WARNING: Negative pressures at 862:00:00 hrs.
  WARNING: Pump F1 closed because cannot deliver head at 862:00:00 hrs.
  WARNING: Pump P1 open but exceeds maximum flow at 862:00:00 hrs.
  
  WARNING: Negative pressures at 863:00:00 hrs.
  WARNING: Pump P1 open but exceeds maximum flow at 863:00:00 hrs.
  
  WARNING: Pump P1 closed because cannot deliver head at 864:00:00 hrs.
  
  WARNING: Pump F1 closed because cannot deliver head at 865:00:00 hrs.
  WARNING: Pump K1 closed because cannot deliver head at 865:00:00 hrs.
  
  WARNING: Pump F1 closed because cannot deliver head at 866:00:00 hrs.
  WARNING: Pump P1 closed because cannot deliver head at 866:00:00 hrs.
  
  WARNING: Pump P1 closed because cannot deliver head at 867:00:00 hrs.
  
  WARNING: Pump F1 closed because cannot deliver head at 868:00:00 hrs.
  WARNING: Pump P1 closed because cannot deliver head at 868:00:00 hrs.
  
  WARNING: Pump P1 closed because cannot deliver head at 869:00:00 hrs.
  
  WARNING: Pump F1 closed because cannot deliver head at 870:00:00 hrs.
  
  WARNING: Pump P1 closed because cannot deliver head at 871:00:00 hrs.
  
  WARNING: Pump F1 closed because cannot deliver head at 873:00:00 hrs.
  
  WARNING: Pump F1 closed because cannot deliver head at 879:00:00 hrs.
  
  WARNING: Pump F1 closed because cannot deliver head at 880:00:00 hrs.
  
  WARNING: Negative pressures at 880:01:02 hrs.
  WARNING: Pump F1 closed because cannot deliver head at 880:01:02 hrs.
  WARNING: Pump P1 open but exceeds maximum flow at 880:01:02 hrs.
  
  WARNING: Negative pressures at 881:00:00 hrs.
  WARNING: Pump F1 closed because cannot deliver head at 881:00:00 hrs.
  WARNING: Pump P1 open but exceeds maximum flow at 881:00:00 hrs.
  
  WARNING: Negative pressures at 882:00:00 hrs.
  WARNING: Pump P1 open but exceeds maximum flow at 882:00:00 hrs.
  
  WARNING: Pump F1 closed because cannot deliver head at 884:00:00 hrs.
  
  WARNING: Pump P1 closed because cannot deliver head at 886:00:00 hrs.
  
  WARNING: Negative pressures at 886:09:38 hrs.
  WARNING: Pump P1 open but exceeds maximum flow at 886:09:38 hrs.
  
  WARNING: Pump P1 closed because cannot deliver head at 888:00:00 hrs.
  
  WARNING: Pump F1 closed because cannot deliver head at 889:00:00 hrs.
  WARNING: Pump P1 closed because cannot deliver head at 889:00:00 hrs.
  
  WARNING: Pump P1 closed because cannot deliver head at 890:00:00 hrs.
  
  WARNING: Pump F1 closed because cannot deliver head at 891:00:00 hrs.
  WARNING: Pump K1 closed because cannot deliver head at 891:00:00 hrs.
  
  WARNING: Pump P1 closed because cannot deliver head at 892:00:00 hrs.
  
  WARNING: Pump F1 closed because cannot deliver head at 894:00:00 hrs.
  
  WARNING: Pump F1 closed because cannot deliver head at 897:00:00 hrs.
  
  WARNING: Negative pressures at 898:00:00 hrs.
  WARNING: Pump P1 open but exceeds maximum flow at 898:00:00 hrs.
  
  WARNING: Pump F1 closed because cannot deliver head at 903:00:00 hrs.
  
  WARNING: Pump P1 closed because cannot deliver head at 906:00:00 hrs.
  
  WARNING: Negative pressures at 907:00:00 hrs.
  WARNING: Pump F1 closed because cannot deliver head at 907:00:00 hrs.
  WARNING: Pump P1 open but exceeds maximum flow at 907:00:00 hrs.
  
  WARNING: Pump F1 closed because cannot deliver head at 911:00:00 hrs.
  WARNING: Pump P1 closed because cannot deliver head at 911:00:00 hrs.
  
  WARNING: Pump F1 closed because cannot deliver head at 913:00:00 hrs.
  WARNING: Pump K1 closed because cannot deliver head at 913:00:00 hrs.
  
  WARNING: Pump P1 closed because cannot deliver head at 915:00:00 hrs.
  
  WARNING: Pump K1 closed because cannot deliver head at 916:00:00 hrs.
  
  WARNING: Pump P1 closed because cannot deliver head at 918:00:00 hrs.
  
  WARNING: Pump F1 closed because cannot deliver head at 919:00:00 hrs.
  
  WARNING: Pump F1 closed because cannot deliver head at 920:00:00 hrs.
  WARNING: Pump P1 closed because cannot deliver head at 920:00:00 hrs.
  
  WARNING: Pump F1 closed because cannot deliver head at 924:00:00 hrs.
  
  WARNING: Pump F1 closed because cannot deliver head at 925:00:00 hrs.
  
  WARNING: Pump P1 closed because cannot deliver head at 927:00:00 hrs.
  
  WARNING: Negative pressures at 928:55:48 hrs.
  WARNING: Pump P1 open but exceeds maximum flow at 928:55:48 hrs.
  
  WARNING: Pump P1 closed because cannot deliver head at 931:00:00 hrs.
  
  WARNING: Pump F1 closed because cannot deliver head at 934:00:00 hrs.
  
  WARNING: Negative pressures at 934:03:30 hrs.
  WARNING: Pump F1 closed because cannot deliver head at 934:03:30 hrs.
  WARNING: Pump P1 open but exceeds maximum flow at 934:03:30 hrs.
  
  WARNING: Pump F1 closed because cannot deliver head at 935:00:00 hrs.
  
  WARNING: Pump F1 closed because cannot deliver head at 936:00:00 hrs.
  
  WARNING: Pump K1 closed because cannot deliver head at 937:00:00 hrs.
  
  WARNING: Pump P1 closed because cannot deliver head at 938:00:00 hrs.
  
  WARNING: Pump F1 closed because cannot deliver head at 939:00:00 hrs.
  WARNING: Pump K1 closed because cannot deliver head at 939:00:00 hrs.
  
  WARNING: Pump P1 closed because cannot deliver head at 940:00:00 hrs.
  
  WARNING: Pump F1 closed because cannot deliver head at 942:00:00 hrs.
  WARNING: Pump P1 closed because cannot deliver head at 942:00:00 hrs.
  
  WARNING: Pump F1 closed because cannot deliver head at 943:00:00 hrs.
  WARNING: Pump P1 closed because cannot deliver head at 943:00:00 hrs.
  
  WARNING: Pump F1 closed because cannot deliver head at 946:00:00 hrs.
  WARNING: Pump P1 closed because cannot deliver head at 946:00:00 hrs.
  
  WARNING: Pump F1 closed because cannot deliver head at 947:00:00 hrs.
  
  WARNING: Negative pressures at 947:36:43 hrs.
  WARNING: Pump F1 closed because cannot deliver head at 947:36:43 hrs.
  WARNING: Pump P1 open but exceeds maximum flow at 947:36:43 hrs.
  
  WARNING: Negative pressures at 948:00:00 hrs.
  WARNING: Pump F1 closed because cannot deliver head at 948:00:00 hrs.
  WARNING: Pump P1 open but exceeds maximum flow at 948:00:00 hrs.
  
  WARNING: Negative pressures at 949:00:00 hrs.
  WARNING: Pump P1 open but exceeds maximum flow at 949:00:00 hrs.
  
  WARNING: Pump F1 closed because cannot deliver head at 950:00:00 hrs.
  
  WARNING: Negative pressures at 952:00:00 hrs.
  WARNING: Pump P1 open but exceeds maximum flow at 952:00:00 hrs.
  
  WARNING: Negative pressures at 953:00:00 hrs.
  WARNING: Pump F1 closed because cannot deliver head at 953:00:00 hrs.
  WARNING: Pump P1 open but exceeds maximum flow at 953:00:00 hrs.
  
  WARNING: Negative pressures at 953:32:04 hrs.
  WARNING: Pump F1 closed because cannot deliver head at 953:32:04 hrs.
  WARNING: Pump P1 open but exceeds maximum flow at 953:32:04 hrs.
  
  WARNING: Negative pressures at 954:00:00 hrs.
  WARNING: Pump P1 open but exceeds maximum flow at 954:00:00 hrs.
  
  WARNING: Pump F1 closed because cannot deliver head at 956:00:00 hrs.
  
  WARNING: Negative pressures at 956:36:30 hrs.
  WARNING: Pump F1 closed because cannot deliver head at 956:36:30 hrs.
  WARNING: Pump P1 open but exceeds maximum flow at 956:36:30 hrs.
  
  WARNING: Negative pressures at 957:00:00 hrs.
  WARNING: Pump P1 open but exceeds maximum flow at 957:00:00 hrs.
  
  WARNING: Pump F1 closed because cannot deliver head at 959:00:00 hrs.
  WARNING: Pump P1 closed because cannot deliver head at 959:00:00 hrs.
  
  WARNING: Pump F1 closed because cannot deliver head at 961:00:00 hrs.
  WARNING: Pump P1 closed because cannot deliver head at 961:00:00 hrs.
  
  WARNING: Pump K1 closed because cannot deliver head at 962:00:00 hrs.
  
  WARNING: Pump P1 closed because cannot deliver head at 963:00:00 hrs.
  
  WARNING: Pump F1 closed because cannot deliver head at 964:00:00 hrs.
  WARNING: Pump P1 closed because cannot deliver head at 964:00:00 hrs.
  
  WARNING: Pump F1 closed because cannot deliver head at 966:00:00 hrs.
  WARNING: Pump P1 closed because cannot deliver head at 966:00:00 hrs.
  
  WARNING: Pump F1 closed because cannot deliver head at 968:00:00 hrs.
  WARNING: Pump P1 closed because cannot deliver head at 968:00:00 hrs.
  
  WARNING: Pump F1 closed because cannot deliver head at 969:00:00 hrs.
  
  WARNING: Pump F1 closed because cannot deliver head at 974:00:00 hrs.
  
  WARNING: Negative pressures at 974:44:17 hrs.
  WARNING: Pump F1 closed because cannot deliver head at 974:44:17 hrs.
  WARNING: Pump P1 open but exceeds maximum flow at 974:44:17 hrs.
  
  WARNING: Negative pressures at 975:00:00 hrs.
  WARNING: Pump F1 closed because cannot deliver head at 975:00:00 hrs.
  WARNING: Pump P1 open but exceeds maximum flow at 975:00:00 hrs.
  
  WARNING: Negative pressures at 976:00:00 hrs.
  WARNING: Pump P1 open but exceeds maximum flow at 976:00:00 hrs.
  
  WARNING: Pump P1 closed because cannot deliver head at 977:00:00 hrs.
  
  WARNING: Negative pressures at 978:00:00 hrs.
  WARNING: Pump K1 open but exceeds maximum flow at 978:00:00 hrs.
  WARNING: Pump P1 open but exceeds maximum flow at 978:00:00 hrs.
  
  WARNING: Negative pressures at 978:14:51 hrs.
  WARNING: Pump P1 open but exceeds maximum flow at 978:14:51 hrs.
  
  WARNING: Negative pressures at 979:00:00 hrs.
  WARNING: Pump P1 open but exceeds maximum flow at 979:00:00 hrs.
  
  WARNING: Pump F1 closed because cannot deliver head at 980:00:00 hrs.
  
  WARNING: Negative pressures at 980:29:15 hrs.
  WARNING: Pump F1 closed because cannot deliver head at 980:29:15 hrs.
  WARNING: Pump P1 open but exceeds maximum flow at 980:29:15 hrs.
  
  WARNING: Negative pressures at 981:00:00 hrs.
  WARNING: Pump P1 open but exceeds maximum flow at 981:00:00 hrs.
  
  WARNING: Pump F1 closed because cannot deliver head at 983:00:00 hrs.
  WARNING: Pump P1 closed because cannot deliver head at 983:00:00 hrs.
  
  WARNING: Pump P1 closed because cannot deliver head at 984:00:00 hrs.
  
  WARNING: Pump F1 closed because cannot deliver head at 985:00:00 hrs.
  WARNING: Pump P1 closed because cannot deliver head at 985:00:00 hrs.
  
  WARNING: Pump K1 closed because cannot deliver head at 986:00:00 hrs.
  
  WARNING: Pump P1 closed because cannot deliver head at 987:00:00 hrs.
  
  WARNING: Pump K1 closed because cannot deliver head at 988:00:00 hrs.
  
  WARNING: Pump P1 closed because cannot deliver head at 991:00:00 hrs.
  
  WARNING: Negative pressures at 993:00:00 hrs.
  WARNING: Pump F1 closed because cannot deliver head at 993:00:00 hrs.
  WARNING: Pump K1 open but exceeds maximum flow at 993:00:00 hrs.
  WARNING: Pump P1 open but exceeds maximum flow at 993:00:00 hrs.
  
  WARNING: Negative pressures at 994:00:00 hrs.
  WARNING: Pump F1 closed because cannot deliver head at 994:00:00 hrs.
  WARNING: Pump K1 open but exceeds maximum flow at 994:00:00 hrs.
  WARNING: Pump P1 open but exceeds maximum flow at 994:00:00 hrs.
  
  WARNING: Pump F1 closed because cannot deliver head at 995:00:00 hrs.
  
  WARNING: Pump P1 closed because cannot deliver head at 998:00:00 hrs.
  
  WARNING: Pump F1 closed because cannot deliver head at 1002:00:00 hrs.
  
  WARNING: Pump F1 closed because cannot deliver head at 1003:00:00 hrs.
  
  WARNING: Negative pressures at 1003:37:35 hrs.
  WARNING: Pump P1 open but exceeds maximum flow at 1003:37:35 hrs.
  
  WARNING: Negative pressures at 1004:00:00 hrs.
  WARNING: Pump P1 open but exceeds maximum flow at 1004:00:00 hrs.
  
  WARNING: Pump F1 closed because cannot deliver head at 1005:00:00 hrs.
  WARNING: Pump P1 closed because cannot deliver head at 1005:00:00 hrs.
  
  WARNING: Negative pressures at 1005:35:04 hrs.
  WARNING: Pump P1 open but exceeds maximum flow at 1005:35:04 hrs.
  
  WARNING: Negative pressures at 1006:00:00 hrs.
  WARNING: Pump P1 open but exceeds maximum flow at 1006:00:00 hrs.
  
  WARNING: Pump F1 closed because cannot deliver head at 1007:00:00 hrs.
  
  WARNING: Pump K1 closed because cannot deliver head at 1008:00:00 hrs.
  
  WARNING: Pump F1 closed because cannot deliver head at 1009:00:00 hrs.
  WARNING: Pump P1 closed because cannot deliver head at 1009:00:00 hrs.
  
  WARNING: Pump F1 closed because cannot deliver head at 1010:00:00 hrs.
  
  WARNING: Pump F1 closed because cannot deliver head at 1011:00:00 hrs.
  WARNING: Pump P1 closed because cannot deliver head at 1011:00:00 hrs.
  
  WARNING: Pump F1 closed because cannot deliver head at 1012:00:00 hrs.
  WARNING: Pump P1 closed because cannot deliver head at 1012:00:00 hrs.
  
  WARNING: Pump F1 closed because cannot deliver head at 1013:00:00 hrs.
  
  WARNING: Pump P1 closed because cannot deliver head at 1014:00:00 hrs.
  
  WARNING: Pump F1 closed because cannot deliver head at 1015:00:00 hrs.
  
  WARNING: Pump F1 closed because cannot deliver head at 1016:00:00 hrs.
  
  WARNING: Negative pressures at 1016:49:05 hrs.
  WARNING: Pump F1 closed because cannot deliver head at 1016:49:05 hrs.
  WARNING: Pump P1 open but exceeds maximum flow at 1016:49:05 hrs.
  
  WARNING: Negative pressures at 1017:00:00 hrs.
  WARNING: Pump F1 closed because cannot deliver head at 1017:00:00 hrs.
  WARNING: Pump P1 open but exceeds maximum flow at 1017:00:00 hrs.
  
  WARNING: Negative pressures at 1018:00:00 hrs.
  WARNING: Pump P1 open but exceeds maximum flow at 1018:00:00 hrs.
  
  WARNING: Pump F1 closed because cannot deliver head at 1019:00:00 hrs.
  
  WARNING: Negative pressures at 1019:27:41 hrs.
  WARNING: Pump F1 closed because cannot deliver head at 1019:27:41 hrs.
  WARNING: Pump P1 open but exceeds maximum flow at 1019:27:41 hrs.
  
[...]
  
  WARNING: Pump K1 closed because cannot deliver head at 21315:35:28 hrs.
  
  WARNING: Pump F1 closed because cannot deliver head at 21316:00:00 hrs.
  WARNING: Pump P1 closed because cannot deliver head at 21316:00:00 hrs.
  
  WARNING: Pump P1 closed because cannot deliver head at 21317:00:00 hrs.
  
  WARNING: Pump P1 closed because cannot deliver head at 21317:41:43 hrs.
  
  WARNING: Pump F1 closed because cannot deliver head at 21318:00:00 hrs.
  
  WARNING: Negative pressures at 21321:00:00 hrs.
  WARNING: Pump F1 closed because cannot deliver head at 21321:00:00 hrs.
  WARNING: Pump K1 open but exceeds maximum flow at 21321:00:00 hrs.
  WARNING: Pump P1 open but exceeds maximum flow at 21321:00:00 hrs.
  
  WARNING: Negative pressures at 21324:00:00 hrs.
  WARNING: Pump K1 open but exceeds maximum flow at 21324:00:00 hrs.
  WARNING: Pump P1 open but exceeds maximum flow at 21324:00:00 hrs.
  
  WARNING: Negative pressures at 21325:00:00 hrs.
  WARNING: Pump F1 closed because cannot deliver head at 21325:00:00 hrs.
  WARNING: Pump K1 open but exceeds maximum flow at 21325:00:00 hrs.
  WARNING: Pump P1 open but exceeds maximum flow at 21325:00:00 hrs.
  
  WARNING: Pump F1 closed because cannot deliver head at 21326:00:00 hrs.
  
  WARNING: Pump F1 closed because cannot deliver head at 21327:00:00 hrs.
  
  WARNING: Negative pressures at 21331:00:00 hrs.
  WARNING: Pump K1 open but exceeds maximum flow at 21331:00:00 hrs.
  WARNING: Pump P1 open but exceeds maximum flow at 21331:00:00 hrs.
  
  WARNING: Pump P1 closed because cannot deliver head at 21335:00:00 hrs.
  
  WARNING: Pump F1 closed because cannot deliver head at 21337:00:00 hrs.
  WARNING: Pump P1 closed because cannot deliver head at 21337:00:00 hrs.
  
  WARNING: Pump F1 closed because cannot deliver head at 21338:00:00 hrs.
  WARNING: Pump P1 closed because cannot deliver head at 21338:00:00 hrs.
  
  WARNING: Pump K1 closed because cannot deliver head at 21339:00:00 hrs.
  
  WARNING: Pump P1 closed because cannot deliver head at 21340:00:00 hrs.
  
  WARNING: Pump F1 closed because cannot deliver head at 21341:00:00 hrs.
  WARNING: Pump K1 closed because cannot deliver head at 21341:00:00 hrs.
  
  WARNING: Pump F1 closed because cannot deliver head at 21343:00:00 hrs.
  
  WARNING: Negative pressures at 21348:00:00 hrs.
  WARNING: Pump P1 open but exceeds maximum flow at 21348:00:00 hrs.
  
  WARNING: Pump F1 closed because cannot deliver head at 21350:00:00 hrs.
  WARNING: Pump P1 closed because cannot deliver head at 21350:00:00 hrs.
  
  WARNING: Pump P1 closed because cannot deliver head at 21352:00:00 hrs.
  
  WARNING: Pump F1 closed because cannot deliver head at 21353:00:00 hrs.
  
  WARNING: Pump P1 closed because cannot deliver head at 21354:00:00 hrs.
  
  WARNING: Negative pressures at 21356:00:00 hrs.
  WARNING: Pump K1 open but exceeds maximum flow at 21356:00:00 hrs.
  WARNING: Pump P1 open but exceeds maximum flow at 21356:00:00 hrs.
  
  WARNING: Pump F1 closed because cannot deliver head at 21357:00:00 hrs.
  
  WARNING: Pump K1 closed because cannot deliver head at 21360:00:00 hrs.
  
  WARNING: Pump K1 closed because cannot deliver head at 21361:00:00 hrs.
  
  WARNING: Pump P1 closed because cannot deliver head at 21362:00:00 hrs.
  
  WARNING: Pump F1 closed because cannot deliver head at 21363:00:00 hrs.
  WARNING: Pump K1 closed because cannot deliver head at 21363:00:00 hrs.
  
  WARNING: Pump F1 closed because cannot deliver head at 21364:00:00 hrs.
  WARNING: Pump K1 closed because cannot deliver head at 21364:00:00 hrs.
  
  WARNING: Pump F1 closed because cannot deliver head at 21365:00:00 hrs.
  WARNING: Pump P1 closed because cannot deliver head at 21365:00:00 hrs.
  
  WARNING: Pump P1 closed because cannot deliver head at 21366:00:00 hrs.
  
  WARNING: Pump P1 closed because cannot deliver head at 21369:00:00 hrs.
  
  WARNING: Pump F1 closed because cannot deliver head at 21370:00:00 hrs.
  
  WARNING: Pump F1 closed because cannot deliver head at 21371:00:00 hrs.
  
  WARNING: Negative pressures at 21372:00:00 hrs.
  WARNING: Pump K1 open but exceeds maximum flow at 21372:00:00 hrs.
  WARNING: Pump P1 open but exceeds maximum flow at 21372:00:00 hrs.
  
  WARNING: Pump P1 closed because cannot deliver head at 21373:00:00 hrs.
  
  WARNING: Negative pressures at 21374:00:00 hrs.
  WARNING: Pump F1 closed because cannot deliver head at 21374:00:00 hrs.
  WARNING: Pump P1 open but exceeds maximum flow at 21374:00:00 hrs.
  
  WARNING: Pump F1 closed because cannot deliver head at 21375:00:00 hrs.
  
  WARNING: Pump F1 closed because cannot deliver head at 21376:00:00 hrs.
  
  WARNING: Negative pressures at 21376:00:52 hrs.
  WARNING: Pump F1 closed because cannot deliver head at 21376:00:52 hrs.
  WARNING: Pump P1 open but exceeds maximum flow at 21376:00:52 hrs.
  
  WARNING: Negative pressures at 21377:00:00 hrs.
  WARNING: Pump P1 open but exceeds maximum flow at 21377:00:00 hrs.
  
  WARNING: Negative pressures at 21379:00:00 hrs.
  WARNING: Pump F1 closed because cannot deliver head at 21379:00:00 hrs.
  
  WARNING: Negative pressures at 21382:35:01 hrs.
  WARNING: Pump P1 open but exceeds maximum flow at 21382:35:01 hrs.
  
  WARNING: Pump P1 closed because cannot deliver head at 21383:00:00 hrs.
  
  WARNING: Pump F1 closed because cannot deliver head at 21384:00:00 hrs.
  
  WARNING: Pump K1 closed because cannot deliver head at 21385:00:00 hrs.
  
  WARNING: Pump F1 closed because cannot deliver head at 21386:00:00 hrs.
  WARNING: Pump P1 closed because cannot deliver head at 21386:00:00 hrs.
  
  WARNING: Pump P1 closed because cannot deliver head at 21387:00:00 hrs.
  
  WARNING: Pump K1 closed because cannot deliver head at 21388:00:00 hrs.
  
  WARNING: Pump P1 closed because cannot deliver head at 21390:00:00 hrs.
  
  WARNING: Pump P1 closed because cannot deliver head at 21392:00:00 hrs.
  
  WARNING: Negative pressures at 21393:00:00 hrs.
  WARNING: Pump P1 open but exceeds maximum flow at 21393:00:00 hrs.
  
  WARNING: Pump F1 closed because cannot deliver head at 21397:00:00 hrs.
  
  WARNING: Negative pressures at 21398:00:00 hrs.
  WARNING: Pump P1 open but exceeds maximum flow at 21398:00:00 hrs.
  
  WARNING: Negative pressures at 21402:00:00 hrs.
  WARNING: Pump P1 open but exceeds maximum flow at 21402:00:00 hrs.
  
  WARNING: Pump F1 closed because cannot deliver head at 21404:00:00 hrs.
  
  WARNING: Pump F1 closed because cannot deliver head at 21407:00:00 hrs.
  WARNING: Pump P1 closed because cannot deliver head at 21407:00:00 hrs.
  
  WARNING: Negative pressures at 21407:25:36 hrs.
  WARNING: Pump P1 open but exceeds maximum flow at 21407:25:36 hrs.
  
  WARNING: Pump K1 closed because cannot deliver head at 21408:00:00 hrs.
  
  WARNING: Pump P1 closed because cannot deliver head at 21409:00:00 hrs.
  
  WARNING: Pump K1 closed because cannot deliver head at 21411:00:00 hrs.
  
  WARNING: Pump P1 closed because cannot deliver head at 21412:00:00 hrs.
  
  WARNING: Pump P1 closed because cannot deliver head at 21413:00:00 hrs.
  
  WARNING: Pump P1 closed because cannot deliver head at 21414:00:00 hrs.
  
  WARNING: Pump F1 closed because cannot deliver head at 21415:00:00 hrs.
  WARNING: Pump P1 closed because cannot deliver head at 21415:00:00 hrs.
  
  WARNING: Pump F1 closed because cannot deliver head at 21420:00:00 hrs.
  
  WARNING: Pump P1 closed because cannot deliver head at 21421:00:00 hrs.
  
  WARNING: Negative pressures at 21422:00:00 hrs.
  WARNING: Pump F1 closed because cannot deliver head at 21422:00:00 hrs.
  WARNING: Pump K1 open but exceeds maximum flow at 21422:00:00 hrs.
  WARNING: Pump P1 open but exceeds maximum flow at 21422:00:00 hrs.
  
  WARNING: Pump F1 closed because cannot deliver head at 21423:00:00 hrs.
  
  WARNING: Negative pressures at 21423:47:43 hrs.
  WARNING: Pump F1 closed because cannot deliver head at 21423:47:43 hrs.
  WARNING: Pump P1 open but exceeds maximum flow at 21423:47:43 hrs.
  
  WARNING: Negative pressures at 21424:00:00 hrs.
  WARNING: Pump F1 closed because cannot deliver head at 21424:00:00 hrs.
  WARNING: Pump P1 open but exceeds maximum flow at 21424:00:00 hrs.
  
  WARNING: Negative pressures at 21425:00:00 hrs.
  WARNING: Pump P1 open but exceeds maximum flow at 21425:00:00 hrs.
  
  WARNING: Negative pressures at 21428:00:00 hrs.
  WARNING: Pump K1 open but exceeds maximum flow at 21428:00:00 hrs.
  WARNING: Pump P1 open but exceeds maximum flow at 21428:00:00 hrs.
  
  WARNING: Pump P1 closed because cannot deliver head at 21432:00:00 hrs.
  
  WARNING: Pump F1 closed because cannot deliver head at 21433:00:00 hrs.
  
  WARNING: Pump F1 closed because cannot deliver head at 21434:00:00 hrs.
  WARNING: Pump K1 closed because cannot deliver head at 21434:00:00 hrs.
  
  WARNING: Pump F1 closed because cannot deliver head at 21435:00:00 hrs.
  WARNING: Pump P1 closed because cannot deliver head at 21435:00:00 hrs.
  
  WARNING: Pump F1 closed because cannot deliver head at 21436:00:00 hrs.
  WARNING: Pump P1 closed because cannot deliver head at 21436:00:00 hrs.
  
  WARNING: Pump P1 closed because cannot deliver head at 21437:00:00 hrs.
  
  WARNING: Pump F1 closed because cannot deliver head at 21438:00:00 hrs.
  WARNING: Pump P1 closed because cannot deliver head at 21438:00:00 hrs.
  
  WARNING: Pump P1 closed because cannot deliver head at 21440:00:00 hrs.
  
  WARNING: Negative pressures at 21441:00:00 hrs.
  WARNING: Pump K1 open but exceeds maximum flow at 21441:00:00 hrs.
  WARNING: Pump P1 open but exceeds maximum flow at 21441:00:00 hrs.
  
  WARNING: Pump F1 closed because cannot deliver head at 21444:00:00 hrs.
  
  WARNING: Pump F1 closed because cannot deliver head at 21445:00:00 hrs.
  
  WARNING: Pump F1 closed because cannot deliver head at 21446:00:00 hrs.
  
  WARNING: Negative pressures at 21446:40:33 hrs.
  WARNING: Pump P1 open but exceeds maximum flow at 21446:40:33 hrs.
  
  WARNING: Negative pressures at 21447:00:00 hrs.
  WARNING: Pump P1 open but exceeds maximum flow at 21447:00:00 hrs.
  
  WARNING: Pump P1 closed because cannot deliver head at 21449:00:00 hrs.
  
  WARNING: Pump F1 closed because cannot deliver head at 21454:00:00 hrs.
  WARNING: Pump P1 closed because cannot deliver head at 21454:00:00 hrs.
  
  WARNING: Pump F1 closed because cannot deliver head at 21455:00:00 hrs.
  
  WARNING: Pump P1 closed because cannot deliver head at 21456:00:00 hrs.
  
  WARNING: Pump F1 closed because cannot deliver head at 21457:00:00 hrs.
  
  WARNING: Pump F1 closed because cannot deliver head at 21458:00:00 hrs.
  WARNING: Pump K1 closed because cannot deliver head at 21458:00:00 hrs.
  
  WARNING: Pump P1 closed because cannot deliver head at 21459:00:00 hrs.
  
  WARNING: Pump K1 closed because cannot deliver head at 21460:00:00 hrs.
  
  WARNING: Pump K1 closed because cannot deliver head at 21461:00:00 hrs.
  
  WARNING: Pump P1 closed because cannot deliver head at 21462:00:00 hrs.
  
  WARNING: Pump F1 closed because cannot deliver head at 21464:00:00 hrs.
  
  WARNING: Pump F1 closed because cannot deliver head at 21465:00:00 hrs.
  
  WARNING: Negative pressures at 21466:00:00 hrs.
  WARNING: Pump K1 open but exceeds maximum flow at 21466:00:00 hrs.
  WARNING: Pump P1 open but exceeds maximum flow at 21466:00:00 hrs.
  
  WARNING: Negative pressures at 21471:00:00 hrs.
  WARNING: Pump P1 open but exceeds maximum flow at 21471:00:00 hrs.
  
  WARNING: Pump P1 closed because cannot deliver head at 21473:00:00 hrs.
  
  WARNING: Pump F1 closed because cannot deliver head at 21478:00:00 hrs.
  
  WARNING: Negative pressures at 21478:34:33 hrs.
  WARNING: Pump P1 open but exceeds maximum flow at 21478:34:33 hrs.
  
  WARNING: Negative pressures at 21479:00:00 hrs.
  WARNING: Pump P1 open but exceeds maximum flow at 21479:00:00 hrs.
  
  WARNING: Negative pressures at 21480:00:00 hrs.
  WARNING: Pump P1 open but exceeds maximum flow at 21480:00:00 hrs.
  
  WARNING: Pump P1 closed because cannot deliver head at 21481:00:00 hrs.
  
  WARNING: Pump F1 closed because cannot deliver head at 21482:00:00 hrs.
  WARNING: Pump K1 closed because cannot deliver head at 21482:00:00 hrs.
  
  WARNING: Pump K1 closed because cannot deliver head at 21483:00:00 hrs.
  
  WARNING: Pump F1 closed because cannot deliver head at 21484:00:00 hrs.
  
  WARNING: Pump F1 closed because cannot deliver head at 21485:00:00 hrs.
  
  WARNING: Pump F1 closed because cannot deliver head at 21487:00:00 hrs.
  
  WARNING: Negative pressures at 21492:00:00 hrs.
  WARNING: Pump F1 closed because cannot deliver head at 21492:00:00 hrs.
  WARNING: Pump P1 open but exceeds maximum flow at 21492:00:00 hrs.
  
  WARNING: Pump F1 closed because cannot deliver head at 21495:00:00 hrs.
  WARNING: Pump P1 closed because cannot deliver head at 21495:00:00 hrs.
  
  WARNING: Negative pressures at 21495:35:55 hrs.
  WARNING: Pump F1 closed because cannot deliver head at 21495:35:55 hrs.
  WARNING: Pump P1 open but exceeds maximum flow at 21495:35:55 hrs.
  
  WARNING: Negative pressures at 21496:00:00 hrs.
  WARNING: Pump P1 open but exceeds maximum flow at 21496:00:00 hrs.
  
  WARNING: Negative pressures at 21500:00:00 hrs.
  WARNING: Pump F1 closed because cannot deliver head at 21500:00:00 hrs.
  WARNING: Pump P1 open but exceeds maximum flow at 21500:00:00 hrs.
  
  WARNING: Pump P1 closed because cannot deliver head at 21503:00:00 hrs.
  
  WARNING: Pump K1 closed because cannot deliver head at 21504:00:00 hrs.
  
  WARNING: Pump F1 closed because cannot deliver head at 21505:00:00 hrs.
  WARNING: Pump K1 closed because cannot deliver head at 21505:00:00 hrs.
  
  WARNING: Pump F1 closed because cannot deliver head at 21506:00:00 hrs.
  WARNING: Pump P1 closed because cannot deliver head at 21506:00:00 hrs.
  
  WARNING: Pump K1 closed because cannot deliver head at 21507:00:00 hrs.
  
  WARNING: Pump F1 closed because cannot deliver head at 21508:00:00 hrs.
  WARNING: Pump P1 closed because cannot deliver head at 21508:00:00 hrs.
  
  WARNING: Pump K1 closed because cannot deliver head at 21509:00:00 hrs.
  
  WARNING: Pump P1 closed because cannot deliver head at 21510:00:00 hrs.
  
  WARNING: Negative pressures at 21514:00:00 hrs.
  WARNING: Pump F1 closed because cannot deliver head at 21514:00:00 hrs.
  WARNING: Pump K1 open but exceeds maximum flow at 21514:00:00 hrs.
  WARNING: Pump P1 open but exceeds maximum flow at 21514:00:00 hrs.
  
  WARNING: Pump F1 closed because cannot deliver head at 21515:00:00 hrs.
  WARNING: Pump P1 closed because cannot deliver head at 21515:00:00 hrs.
  
  WARNING: Pump P1 closed because cannot deliver head at 21516:00:00 hrs.
  
  WARNING: Pump F1 closed because cannot deliver head at 21517:00:00 hrs.
  
  WARNING: Pump F1 closed because cannot deliver head at 21520:00:00 hrs.
  
  WARNING: Pump P1 closed because cannot deliver head at 21521:00:00 hrs.
  
  WARNING: Pump F1 closed because cannot deliver head at 21527:00:00 hrs.
  WARNING: Pump P1 closed because cannot deliver head at 21527:00:00 hrs.
  
  WARNING: Pump P1 closed because cannot deliver head at 21529:00:00 hrs.
  
  WARNING: Pump P1 closed because cannot deliver head at 21531:00:00 hrs.
  
  WARNING: Pump F1 closed because cannot deliver head at 21532:00:00 hrs.
  WARNING: Pump K1 closed because cannot deliver head at 21532:00:00 hrs.
  
  WARNING: Pump P1 closed because cannot deliver head at 21533:00:00 hrs.
  
  WARNING: Pump F1 closed because cannot deliver head at 21534:00:00 hrs.
  
  WARNING: Pump P1 closed because cannot deliver head at 21536:00:00 hrs.
  
  WARNING: Pump F1 closed because cannot deliver head at 21539:00:00 hrs.
  WARNING: Pump P1 closed because cannot deliver head at 21539:00:00 hrs.
  
  WARNING: Pump F1 closed because cannot deliver head at 21543:00:00 hrs.
  
  WARNING: Pump F1 closed because cannot deliver head at 21544:00:00 hrs.
  
  WARNING: Pump P1 closed because cannot deliver head at 21545:00:00 hrs.
  
  WARNING: Pump F1 closed because cannot deliver head at 21547:00:00 hrs.
  
  WARNING: Pump F1 closed because cannot deliver head at 21548:00:00 hrs.
  
  WARNING: Negative pressures at 21548:46:36 hrs.
  WARNING: Pump F1 closed because cannot deliver head at 21548:46:36 hrs.
  WARNING: Pump P1 open but exceeds maximum flow at 21548:46:36 hrs.
  
  WARNING: Negative pressures at 21549:00:00 hrs.
  WARNING: Pump P1 open but exceeds maximum flow at 21549:00:00 hrs.
  
  WARNING: Pump K1 closed because cannot deliver head at 21552:00:00 hrs.
  
  WARNING: Pump P1 closed because cannot deliver head at 21553:00:00 hrs.
  
  WARNING: Pump P1 closed because cannot deliver head at 21554:00:00 hrs.
  
  WARNING: Pump K1 closed because cannot deliver head at 21555:00:00 hrs.
  
  WARNING: Pump F1 closed because cannot deliver head at 21556:00:00 hrs.
  WARNING: Pump K1 closed because cannot deliver head at 21556:00:00 hrs.
  
  WARNING: Pump F1 closed because cannot deliver head at 21558:00:00 hrs.
  
  WARNING: Pump P1 closed because cannot deliver head at 21559:00:00 hrs.
  
  WARNING: Negative pressures at 21565:00:00 hrs.
  WARNING: Pump F1 closed because cannot deliver head at 21565:00:00 hrs.
  WARNING: Pump P1 open but exceeds maximum flow at 21565:00:00 hrs.
  
  WARNING: Pump F1 closed because cannot deliver head at 21566:00:00 hrs.
  
  WARNING: Pump P1 closed because cannot deliver head at 21567:00:00 hrs.
  
  WARNING: Negative pressures at 21568:00:00 hrs.
  WARNING: Pump F1 closed because cannot deliver head at 21568:00:00 hrs.
  WARNING: Pump K1 open but exceeds maximum flow at 21568:00:00 hrs.
  WARNING: Pump P1 open but exceeds maximum flow at 21568:00:00 hrs.
  
  WARNING: Pump F1 closed because cannot deliver head at 21570:00:00 hrs.
  
  WARNING: Pump F1 closed because cannot deliver head at 21572:00:00 hrs.
  
  WARNING: Pump P1 closed because cannot deliver head at 21573:00:00 hrs.
  
  WARNING: Pump F1 closed because cannot deliver head at 21575:00:00 hrs.
  
  WARNING: Pump P1 closed because cannot deliver head at 21576:00:00 hrs.
  
  WARNING: Pump K1 closed because cannot deliver head at 21577:00:00 hrs.
  
  WARNING: Pump F1 closed because cannot deliver head at 21578:00:00 hrs.
  WARNING: Pump K1 closed because cannot deliver head at 21578:00:00 hrs.
  
  WARNING: Pump P1 closed because cannot deliver head at 21579:00:00 hrs.
  
  WARNING: Pump F1 closed because cannot deliver head at 21580:00:00 hrs.
  WARNING: Pump P1 closed because cannot deliver head at 21580:00:00 hrs.
  
  WARNING: Pump P1 closed because cannot deliver head at 21581:00:00 hrs.
  
  WARNING: Pump F1 closed because cannot deliver head at 21582:00:00 hrs.
  WARNING: Pump P1 closed because cannot deliver head at 21582:00:00 hrs.
  
  WARNING: Pump P1 closed because cannot deliver head at 21585:00:00 hrs.
  
  WARNING: Pump F1 closed because cannot deliver head at 21588:00:00 hrs.
  
  WARNING: Pump F1 closed because cannot deliver head at 21589:00:00 hrs.
  
  WARNING: Pump P1 closed because cannot deliver head at 21593:00:00 hrs.
  
  WARNING: Pump F1 closed because cannot deliver head at 21595:00:00 hrs.
  
  WARNING: Negative pressures at 21596:00:00 hrs.
  WARNING: Pump P1 open but exceeds maximum flow at 21596:00:00 hrs.
  
  WARNING: Negative pressures at 21596:36:41 hrs.
  WARNING: Pump P1 open but exceeds maximum flow at 21596:36:41 hrs.
  
  WARNING: Pump F1 closed because cannot deliver head at 21597:00:00 hrs.
  
  WARNING: Negative pressures at 21597:11:08 hrs.
  WARNING: Pump F1 closed because cannot deliver head at 21597:11:08 hrs.
  WARNING: Pump P1 open but exceeds maximum flow at 21597:11:08 hrs.
  
  WARNING: Negative pressures at 21598:00:00 hrs.
  WARNING: Pump P1 open but exceeds maximum flow at 21598:00:00 hrs.
  
  WARNING: Pump P1 closed because cannot deliver head at 21600:00:00 hrs.
  
  Analysis ended Tue May 16 08:13:20 2023
