  Page 1                                    Mon May 15 20:02:08 2023

  ******************************************************************
  *                           E P A N E T                          *
  *                   Hydraulic and Water Quality                  *
  *                   Analysis for Pipe Networks                   *
  *                         Version 2.00.12                        *
  ******************************************************************
  
  Analysis begun Mon May 15 20:02:08 2023

  WARNING: Pump F1 closed because cannot deliver head at 1:00:00 hrs.
  WARNING: Pump K1 closed because cannot deliver head at 1:00:00 hrs.
  
  WARNING: Pump P1 closed because cannot deliver head at 2:00:00 hrs.
  
  WARNING: Pump F1 closed because cannot deliver head at 3:00:00 hrs.
  
  WARNING: Pump P1 closed because cannot deliver head at 4:00:00 hrs.
  
  WARNING: Pump F1 closed because cannot deliver head at 5:00:00 hrs.
  
  WARNING: Pump F1 closed because cannot deliver head at 7:00:00 hrs.
  WARNING: Pump P1 closed because cannot deliver head at 7:00:00 hrs.
  
  WARNING: Pump F1 closed because cannot deliver head at 8:00:00 hrs.
  
  WARNING: Pump F1 closed because cannot deliver head at 9:00:00 hrs.
  
  WARNING: Pump P1 closed because cannot deliver head at 11:00:00 hrs.
  
  WARNING: Pump P1 closed because cannot deliver head at 13:00:00 hrs.
  
  WARNING: Pump F1 closed because cannot deliver head at 15:00:00 hrs.
  WARNING: Pump P1 closed because cannot deliver head at 15:00:00 hrs.
  
  WARNING: Pump F1 closed because cannot deliver head at 16:00:00 hrs.
  
  WARNING: Pump F1 closed because cannot deliver head at 17:00:00 hrs.
  
  WARNING: Pump F1 closed because cannot deliver head at 18:00:00 hrs.
  WARNING: Pump P1 closed because cannot deliver head at 18:00:00 hrs.
  
  WARNING: Pump F1 closed because cannot deliver head at 20:00:00 hrs.
  
  WARNING: Pump P1 closed because cannot deliver head at 21:00:00 hrs.
  
  WARNING: Pump P1 closed because cannot deliver head at 23:00:00 hrs.
  
  WARNING: Pump P1 closed because cannot deliver head at 0:00:00 hrs.
  
  WARNING: Pump P1 closed because cannot deliver head at 1:00:00 hrs.
  
  WARNING: Pump P1 closed because cannot deliver head at 2:00:00 hrs.
  
  WARNING: Pump K1 closed because cannot deliver head at 5:00:00 hrs.
  
  WARNING: Pump P1 closed because cannot deliver head at 6:00:00 hrs.
  
  WARNING: Pump F1 closed because cannot deliver head at 7:00:00 hrs.
  WARNING: Pump K1 closed because cannot deliver head at 7:00:00 hrs.
  
  WARNING: Pump F1 closed because cannot deliver head at 9:00:00 hrs.
  
  WARNING: Pump F1 closed because cannot deliver head at 10:00:00 hrs.
  
  WARNING: Pump F1 closed because cannot deliver head at 11:00:00 hrs.
  
  WARNING: Pump K1 closed because cannot deliver head at 13:00:00 hrs.
  
  WARNING: Pump F1 closed because cannot deliver head at 14:00:00 hrs.
  WARNING: Pump K1 closed because cannot deliver head at 14:00:00 hrs.
  
  WARNING: Pump F1 closed because cannot deliver head at 15:00:00 hrs.
  WARNING: Pump P1 closed because cannot deliver head at 15:00:00 hrs.
  
  WARNING: Pump F1 closed because cannot deliver head at 16:00:00 hrs.
  WARNING: Pump P1 closed because cannot deliver head at 16:00:00 hrs.
  
  WARNING: Pump P1 closed because cannot deliver head at 17:00:00 hrs.
  
  WARNING: Pump P1 closed because cannot deliver head at 19:00:00 hrs.
  
  WARNING: Pump P1 closed because cannot deliver head at 19:02:07 hrs.
  
  WARNING: Pump P1 closed because cannot deliver head at 20:00:00 hrs.
  
  WARNING: Pump P1 closed because cannot deliver head at 20:49:00 hrs.
  
  WARNING: Pump P1 closed because cannot deliver head at 21:00:00 hrs.
  
  WARNING: Pump F1 closed because cannot deliver head at 22:08:30 hrs.
  
  WARNING: Pump F1 closed because cannot deliver head at 24:00:00 hrs.
  
  WARNING: Pump K1 closed because cannot deliver head at 0:00:00 hrs.
  
  WARNING: Pump P1 closed because cannot deliver head at 1:00:00 hrs.
  
  WARNING: Pump F1 closed because cannot deliver head at 2:00:00 hrs.
  
  WARNING: Pump K1 closed because cannot deliver head at 4:00:00 hrs.
  
  WARNING: Pump P1 closed because cannot deliver head at 6:00:00 hrs.
  
  WARNING: Pump F1 closed because cannot deliver head at 10:41:03 hrs.
  
  WARNING: Pump F1 closed because cannot deliver head at 11:30:21 hrs.
  
  WARNING: Pump F1 closed because cannot deliver head at 12:00:00 hrs.
  WARNING: Pump K1 closed because cannot deliver head at 12:00:00 hrs.
  
  WARNING: Pump F1 closed because cannot deliver head at 14:00:00 hrs.
  
  WARNING: Pump P1 closed because cannot deliver head at 16:00:00 hrs.
  
  WARNING: Pump P1 closed because cannot deliver head at 17:00:00 hrs.
  
  WARNING: Pump P1 closed because cannot deliver head at 18:00:00 hrs.
  
  WARNING: Pump P1 closed because cannot deliver head at 19:00:00 hrs.
  
  WARNING: Pump K1 closed because cannot deliver head at 20:00:00 hrs.
  
  WARNING: Pump K1 closed because cannot deliver head at 20:37:50 hrs.
  
  WARNING: Pump F1 closed because cannot deliver head at 21:00:00 hrs.
  
  WARNING: Pump F1 closed because cannot deliver head at 22:00:00 hrs.
  WARNING: Pump P1 closed because cannot deliver head at 22:00:00 hrs.
  
  WARNING: Pump P1 closed because cannot deliver head at 23:00:00 hrs.
  
  WARNING: Pump F1 closed because cannot deliver head at 24:00:00 hrs.
  
  WARNING: Pump P1 closed because cannot deliver head at 3:00:00 hrs.
  
  WARNING: Pump P1 closed because cannot deliver head at 4:00:00 hrs.
  
  WARNING: Pump F1 closed because cannot deliver head at 5:00:00 hrs.
  WARNING: Pump P1 closed because cannot deliver head at 5:00:00 hrs.
  
  WARNING: Pump F1 closed because cannot deliver head at 7:00:00 hrs.
  
  WARNING: Pump F1 closed because cannot deliver head at 8:00:00 hrs.
  
  WARNING: Pump K1 closed because cannot deliver head at 9:00:00 hrs.
  
  WARNING: Pump F1 closed because cannot deliver head at 10:00:00 hrs.
  
  WARNING: Pump F1 closed because cannot deliver head at 11:00:00 hrs.
  WARNING: Pump P1 closed because cannot deliver head at 11:00:00 hrs.
  
  WARNING: Pump F1 closed because cannot deliver head at 12:00:00 hrs.
  WARNING: Pump P1 closed because cannot deliver head at 12:00:00 hrs.
  
  WARNING: Pump F1 closed because cannot deliver head at 13:00:00 hrs.
  WARNING: Pump P1 closed because cannot deliver head at 13:00:00 hrs.
  
  WARNING: Pump F1 closed because cannot deliver head at 14:00:00 hrs.
  
  WARNING: Pump P1 closed because cannot deliver head at 18:00:00 hrs.
  
  WARNING: Pump F1 closed because cannot deliver head at 19:00:00 hrs.
  WARNING: Pump P1 closed because cannot deliver head at 19:00:00 hrs.
  
  WARNING: Pump F1 closed because cannot deliver head at 20:00:00 hrs.
  
  WARNING: Pump F1 closed because cannot deliver head at 21:00:00 hrs.
  
  WARNING: Pump P1 closed because cannot deliver head at 22:00:00 hrs.
  
  WARNING: Pump P1 closed because cannot deliver head at 23:00:00 hrs.
  
  WARNING: Pump F1 closed because cannot deliver head at 24:00:00 hrs.
  
  WARNING: Pump P1 closed because cannot deliver head at 0:00:00 hrs.
  
  WARNING: Pump P1 closed because cannot deliver head at 1:00:00 hrs.
  
  WARNING: Pump P1 closed because cannot deliver head at 3:00:00 hrs.
  
  WARNING: Pump P1 closed because cannot deliver head at 3:04:50 hrs.
  
  WARNING: Pump F1 closed because cannot deliver head at 4:00:00 hrs.
  WARNING: Pump P1 closed because cannot deliver head at 4:00:00 hrs.
  
  WARNING: Pump P1 closed because cannot deliver head at 5:00:00 hrs.
  
  WARNING: Pump P1 closed because cannot deliver head at 6:00:00 hrs.
  
  WARNING: Pump P1 closed because cannot deliver head at 6:13:12 hrs.
  
  WARNING: Pump P1 closed because cannot deliver head at 7:00:00 hrs.
  
  WARNING: Pump F1 closed because cannot deliver head at 8:00:00 hrs.
  WARNING: Pump P1 closed because cannot deliver head at 8:00:00 hrs.
  
  WARNING: Pump F1 closed because cannot deliver head at 9:00:00 hrs.
  
  WARNING: Pump F1 closed because cannot deliver head at 10:00:00 hrs.
  
  WARNING: Pump F1 closed because cannot deliver head at 11:00:00 hrs.
  WARNING: Pump P1 closed because cannot deliver head at 11:00:00 hrs.
  
  WARNING: Pump P1 closed because cannot deliver head at 12:00:00 hrs.
  
  WARNING: Pump P1 closed because cannot deliver head at 13:00:00 hrs.
  
  WARNING: Pump F1 closed because cannot deliver head at 14:00:00 hrs.
  
  WARNING: Pump F1 closed because cannot deliver head at 17:00:00 hrs.
  
  WARNING: Pump P1 closed because cannot deliver head at 18:00:00 hrs.
  
  WARNING: Pump P1 closed because cannot deliver head at 19:00:00 hrs.
  
  WARNING: Pump P1 closed because cannot deliver head at 21:00:00 hrs.
  
  WARNING: Pump F1 closed because cannot deliver head at 23:00:00 hrs.
  WARNING: Pump P1 closed because cannot deliver head at 23:00:00 hrs.
  
  WARNING: Pump K1 closed because cannot deliver head at 0:00:00 hrs.
  
  WARNING: Pump K1 closed because cannot deliver head at 1:00:00 hrs.
  
  WARNING: Pump K1 closed because cannot deliver head at 2:00:00 hrs.
  
  WARNING: Pump F1 closed because cannot deliver head at 2:31:40 hrs.
  WARNING: Pump K1 closed because cannot deliver head at 2:31:40 hrs.
  
  WARNING: Pump K1 closed because cannot deliver head at 3:00:00 hrs.
  
  WARNING: Pump F1 closed because cannot deliver head at 4:00:00 hrs.
  WARNING: Pump P1 closed because cannot deliver head at 4:00:00 hrs.
  
  WARNING: Pump P1 closed because cannot deliver head at 5:00:00 hrs.
  
  WARNING: Pump P1 closed because cannot deliver head at 5:55:24 hrs.
  
  WARNING: Pump F1 closed because cannot deliver head at 6:00:00 hrs.
  WARNING: Pump P1 closed because cannot deliver head at 6:00:00 hrs.
  
  WARNING: Pump F1 closed because cannot deliver head at 7:00:00 hrs.
  
  WARNING: Pump K1 closed because cannot deliver head at 8:00:00 hrs.
  
  WARNING: Pump K1 closed because cannot deliver head at 8:47:05 hrs.
  
  WARNING: Pump F1 closed because cannot deliver head at 9:00:00 hrs.
  WARNING: Pump P1 closed because cannot deliver head at 9:00:00 hrs.
  
  WARNING: Pump P1 closed because cannot deliver head at 10:00:00 hrs.
  
  WARNING: Pump F1 closed because cannot deliver head at 11:00:00 hrs.
  WARNING: Pump P1 closed because cannot deliver head at 11:00:00 hrs.
  
  WARNING: Pump F1 closed because cannot deliver head at 12:00:00 hrs.
  
  WARNING: Pump P1 closed because cannot deliver head at 13:00:00 hrs.
  
  WARNING: Pump F1 closed because cannot deliver head at 14:00:00 hrs.
  
  WARNING: Pump P1 closed because cannot deliver head at 15:00:00 hrs.
  
  WARNING: Pump F1 closed because cannot deliver head at 16:00:00 hrs.
  WARNING: Pump P1 closed because cannot deliver head at 16:00:00 hrs.
  
  WARNING: Pump P1 closed because cannot deliver head at 17:00:00 hrs.
  
  WARNING: Pump F1 closed because cannot deliver head at 18:00:00 hrs.
  WARNING: Pump P1 closed because cannot deliver head at 18:00:00 hrs.
  
  WARNING: Pump F1 closed because cannot deliver head at 19:00:00 hrs.
  
  WARNING: Pump F1 closed because cannot deliver head at 20:00:00 hrs.
  WARNING: Pump P1 closed because cannot deliver head at 20:00:00 hrs.
  
  WARNING: Pump P1 closed because cannot deliver head at 22:00:00 hrs.
  
  WARNING: Pump P1 closed because cannot deliver head at 23:00:00 hrs.
  
  WARNING: Pump F1 closed because cannot deliver head at 24:00:00 hrs.
  
  WARNING: Pump P1 closed because cannot deliver head at 0:00:00 hrs.
  
  WARNING: Pump P1 closed because cannot deliver head at 1:00:00 hrs.
  
  WARNING: Pump F1 closed because cannot deliver head at 2:00:00 hrs.
  WARNING: Pump K1 closed because cannot deliver head at 2:00:00 hrs.
  
  WARNING: Pump K1 closed because cannot deliver head at 3:00:00 hrs.
  
  WARNING: Pump F1 closed because cannot deliver head at 4:00:00 hrs.
  
  WARNING: Pump K1 closed because cannot deliver head at 5:00:00 hrs.
  
  WARNING: Pump F1 closed because cannot deliver head at 6:00:00 hrs.
  WARNING: Pump K1 closed because cannot deliver head at 6:00:00 hrs.
  
  WARNING: Pump F1 closed because cannot deliver head at 7:00:00 hrs.
  WARNING: Pump P1 closed because cannot deliver head at 7:00:00 hrs.
  
  WARNING: Pump P1 closed because cannot deliver head at 8:00:00 hrs.
  
  WARNING: Pump F1 closed because cannot deliver head at 9:00:00 hrs.
  
  WARNING: Pump F1 closed because cannot deliver head at 10:00:00 hrs.
  
  WARNING: Pump F1 closed because cannot deliver head at 11:00:00 hrs.
  WARNING: Pump P1 closed because cannot deliver head at 11:00:00 hrs.
  
  WARNING: Pump K1 closed because cannot deliver head at 13:00:00 hrs.
  
  WARNING: Pump F1 closed because cannot deliver head at 15:00:00 hrs.
  WARNING: Pump P1 closed because cannot deliver head at 15:00:00 hrs.
  
  WARNING: Pump F1 closed because cannot deliver head at 17:00:00 hrs.
  WARNING: Pump P1 closed because cannot deliver head at 17:00:00 hrs.
  
  WARNING: Pump K1 closed because cannot deliver head at 18:00:00 hrs.
  
  WARNING: Pump F1 closed because cannot deliver head at 19:00:00 hrs.
  
  WARNING: Pump P1 closed because cannot deliver head at 21:00:00 hrs.
  
  WARNING: Pump P1 closed because cannot deliver head at 22:00:00 hrs.
  
  WARNING: Pump F1 closed because cannot deliver head at 24:00:00 hrs.
  
  WARNING: Pump F1 closed because cannot deliver head at 0:00:00 hrs.
  
  WARNING: Negative pressures at 0:41:24 hrs.
  WARNING: Pump P1 open but exceeds maximum flow at 0:41:24 hrs.
  
  WARNING: Pump K1 closed because cannot deliver head at 2:00:00 hrs.
  
  WARNING: Pump K1 closed because cannot deliver head at 4:00:00 hrs.
  
  WARNING: Pump P1 closed because cannot deliver head at 5:00:00 hrs.
  
  WARNING: Pump P1 closed because cannot deliver head at 6:00:00 hrs.
  
  WARNING: Pump P1 closed because cannot deliver head at 8:00:00 hrs.
  
  WARNING: Pump F1 closed because cannot deliver head at 9:00:00 hrs.
  
  WARNING: Pump P1 closed because cannot deliver head at 10:00:00 hrs.
  
  WARNING: Pump F1 closed because cannot deliver head at 11:00:00 hrs.
  WARNING: Pump K1 closed because cannot deliver head at 11:00:00 hrs.
  
  WARNING: Pump F1 closed because cannot deliver head at 12:00:00 hrs.
  
  WARNING: Pump F1 closed because cannot deliver head at 13:00:00 hrs.
  
  WARNING: Pump P1 closed because cannot deliver head at 14:00:00 hrs.
  
  WARNING: Pump F1 closed because cannot deliver head at 15:00:00 hrs.
  
  WARNING: Pump P1 closed because cannot deliver head at 19:00:00 hrs.
  
  WARNING: Pump F1 closed because cannot deliver head at 22:00:00 hrs.
  
  WARNING: Pump F1 closed because cannot deliver head at 23:00:00 hrs.
  
  WARNING: Pump F1 closed because cannot deliver head at 24:00:00 hrs.
  
  WARNING: Pump P1 closed because cannot deliver head at 1:00:00 hrs.
  
  WARNING: Pump F1 closed because cannot deliver head at 3:00:00 hrs.
  
  WARNING: Pump F1 closed because cannot deliver head at 4:00:00 hrs.
  WARNING: Pump K1 closed because cannot deliver head at 4:00:00 hrs.
  
  WARNING: Pump P1 closed because cannot deliver head at 5:00:00 hrs.
  
  WARNING: Pump F1 closed because cannot deliver head at 6:00:00 hrs.
  WARNING: Pump P1 closed because cannot deliver head at 6:00:00 hrs.
  
  WARNING: Pump F1 closed because cannot deliver head at 7:00:00 hrs.
  
  WARNING: Pump F1 closed because cannot deliver head at 8:00:00 hrs.
  WARNING: Pump P1 closed because cannot deliver head at 8:00:00 hrs.
  
  WARNING: Pump F1 closed because cannot deliver head at 10:00:00 hrs.
  WARNING: Pump P1 closed because cannot deliver head at 10:00:00 hrs.
  
  WARNING: Pump F1 closed because cannot deliver head at 11:00:00 hrs.
  
  WARNING: Pump P1 closed because cannot deliver head at 12:00:00 hrs.
  
  WARNING: Pump P1 closed because cannot deliver head at 15:00:00 hrs.
  
  WARNING: Pump F1 closed because cannot deliver head at 16:00:00 hrs.
  
  WARNING: Pump F1 closed because cannot deliver head at 17:00:00 hrs.
  
  WARNING: Pump P1 closed because cannot deliver head at 18:00:00 hrs.
  
  WARNING: Pump P1 closed because cannot deliver head at 19:00:00 hrs.
  
  WARNING: Pump P1 closed because cannot deliver head at 20:00:00 hrs.
  
  WARNING: Pump F1 closed because cannot deliver head at 21:00:00 hrs.
  WARNING: Pump P1 closed because cannot deliver head at 21:00:00 hrs.
  
  WARNING: Pump F1 closed because cannot deliver head at 22:00:00 hrs.
  WARNING: Pump K1 closed because cannot deliver head at 22:00:00 hrs.
  
  WARNING: Pump P1 closed because cannot deliver head at 23:00:00 hrs.
  
  WARNING: Pump F1 closed because cannot deliver head at 24:00:00 hrs.
  
  WARNING: Pump F1 closed because cannot deliver head at 0:00:00 hrs.
  WARNING: Pump P1 closed because cannot deliver head at 0:00:00 hrs.
  
  WARNING: Pump K1 closed because cannot deliver head at 1:00:00 hrs.
  
  WARNING: Pump F1 closed because cannot deliver head at 2:00:00 hrs.
  WARNING: Pump P1 closed because cannot deliver head at 2:00:00 hrs.
  
  WARNING: Pump P1 closed because cannot deliver head at 4:00:00 hrs.
  
  WARNING: Pump F1 closed because cannot deliver head at 6:00:00 hrs.
  
  WARNING: Pump F1 closed because cannot deliver head at 7:00:00 hrs.
  WARNING: Pump P1 closed because cannot deliver head at 7:00:00 hrs.
  
  WARNING: Pump P1 closed because cannot deliver head at 8:00:00 hrs.
  
  WARNING: Pump P1 closed because cannot deliver head at 9:00:00 hrs.
  
  WARNING: Pump P1 closed because cannot deliver head at 10:00:00 hrs.
  
  WARNING: Pump F1 closed because cannot deliver head at 12:00:00 hrs.
  
  WARNING: Pump F1 closed because cannot deliver head at 13:00:00 hrs.
  
  WARNING: Pump F1 closed because cannot deliver head at 14:00:00 hrs.
  WARNING: Pump P1 closed because cannot deliver head at 14:00:00 hrs.
  
  WARNING: Pump P1 closed because cannot deliver head at 16:00:00 hrs.
  
  WARNING: Pump K1 closed because cannot deliver head at 17:00:00 hrs.
  
  WARNING: Pump P1 closed because cannot deliver head at 18:00:00 hrs.
  
  WARNING: Pump K1 closed because cannot deliver head at 19:00:00 hrs.
  
  WARNING: Pump F1 closed because cannot deliver head at 20:00:00 hrs.
  
  WARNING: Pump K1 closed because cannot deliver head at 21:00:00 hrs.
  
  WARNING: Pump F1 closed because cannot deliver head at 22:00:00 hrs.
  WARNING: Pump P1 closed because cannot deliver head at 22:00:00 hrs.
  
  WARNING: Pump F1 closed because cannot deliver head at 23:00:00 hrs.
  WARNING: Pump P1 closed because cannot deliver head at 23:00:00 hrs.
  
  WARNING: Pump F1 closed because cannot deliver head at 24:00:00 hrs.
  
  Analysis ended Mon May 15 20:02:09 2023
