  Page 1                                    Wed May 10 20:43:00 2023

  ******************************************************************
  *                           E P A N E T                          *
  *                   Hydraulic and Water Quality                  *
  *                   Analysis for Pipe Networks                   *
  *                         Version 2.00.12                        *
  ******************************************************************
  
  Analysis begun Wed May 10 20:43:00 2023

  Analysis ended Wed May 10 20:43:00 2023
