  Page 1                                    Thu May 11 11:38:22 2023

  ******************************************************************
  *                           E P A N E T                          *
  *                   Hydraulic and Water Quality                  *
  *                   Analysis for Pipe Networks                   *
  *                         Version 2.00.12                        *
  ******************************************************************
  
  Analysis begun Thu May 11 11:38:22 2023

  WARNING: Pump 1 closed because cannot deliver head at 0:00:00 hrs.
  
  Analysis ended Thu May 11 11:38:22 2023
